  62
        -98.94457295
 C         -2.0397351191       -1.1805610855       -0.6297011378
 C         -1.5345580408       -0.0363500470       -1.2933195098
 C         -2.2449109119        1.2264574009       -1.0342694557
 C         -3.2898988106        1.2409242591       -0.1895731716
 C         -4.0807648906        2.4604576869        0.1847346979
 C         -3.5175436255        3.1395844087        1.4399286185
 C         -2.0093964535        3.3868005799        1.3923625256
 H         -1.7394618176        3.9212179824        2.3065807638
 H         -1.4795073997        2.4312298952        1.4197639966
 C         -1.5321747301        4.1884381064        0.1733955313
 H         -2.3715857777        4.7216442188       -0.2757680379
 H         -0.8126524217        4.9375068158        0.5110892191
 C         -0.8290260289        3.3432576397       -0.8902614658
 H         -0.2989008720        4.0168432743       -1.5693546029
 H         -0.0843446655        2.7104962332       -0.4007865292
 C         -1.7436878719        2.4536933754       -1.7427842574
 H         -2.5783807141        3.0446884008       -2.1264946155
 H         -1.1591665690        2.0915728186       -2.5936735648
 H         -4.0379726342        4.0896615880        1.5783686078
 H         -3.7318582820        2.5056688002        2.3036941221
 H         -4.0755313951        3.1585162377       -0.6504245511
 H         -5.1093138085        2.1522603183        0.3821575235
 O         -3.7368418380        0.1275624730        0.4473149287
 C         -3.1164092283       -1.0944792724        0.2565180476
 O         -3.6203516321       -2.0301162921        0.9123305865
 O         -0.5509152140       -0.0455455055       -2.0775353444
 C         -1.4245509441       -2.5668214007       -0.7582998921
 C         -0.3827714413       -2.7542161174        0.3153867193
 C         -0.3925759262       -3.8653886539        1.1487762574
 C          0.5413224421       -3.9858551556        2.1633927021
 C          1.4796560825       -2.9933177883        2.3787397048
 C          1.4989712310       -1.8765034330        1.5480117853
 C          0.5892532450       -1.7821697498        0.5071971594
 H          0.6078004404       -0.9204584394       -0.1362924448
 N          2.4377270328       -0.8566809565        1.7449023436
 S          2.1073327914        0.7656667405        1.4525543670
 O          2.7664296095        1.4654210210        2.5377421475
 O          0.6937660583        1.0076490843        1.3083746241
 C          3.0078455012        1.0982001848       -0.0489313991
 C          4.3512081276        1.3989170668        0.0847346698
 C          5.1061330251        1.6425904244       -1.0497356699
 C          4.5086805934        1.5814041824       -2.3000731305
 C          3.1618398856        1.2792811991       -2.4179166071
 C          2.3991924490        1.0329070608       -1.2853679306
 H          1.3503943632        0.7935643316       -1.3737885254
 H          2.6890756873        1.2284734378       -3.3857036023
 H          5.0940386950        1.7712821402       -3.1860104998
 H          6.1538186970        1.8795150094       -0.9569128937
 H          4.7701625635        1.4504431741        1.0761012809
 H          3.0069725412       -0.9640650710        2.5711991332
 H          2.1895136758       -3.0749971297        3.1880527484
 H          0.5258762247       -4.8524989475        2.8069989700
 H         -1.1499230185       -4.6236611658        1.0133339945
 H         -2.2461798444       -3.2697947450       -0.5447487787
 C         -0.9127926103       -2.8805532865       -2.1566364088
 C          0.5393420143       -2.9694657881       -2.5061900128
 C         -0.2878589420       -4.2156882077       -2.4364131558
 H         -0.5425149138       -4.7241840405       -3.3538887625
 H         -0.1282170892       -4.8733484888       -1.5950756757
 H          0.8417993490       -2.5972100921       -3.4727693706
 H          1.2643630017       -2.7933246253       -1.7271029695
 H         -1.5672363991       -2.4794516015       -2.9235604422
