  62
        -98.94116162
 C          1.9534935747        0.9071310882       -0.2164435396
 C          2.5790702529        0.3171310456        0.9126290840
 C          2.9025527679       -1.1103505053        0.8178288159
 C          2.5548735991       -1.7848780861       -0.2926415236
 C          2.8473869097       -3.2357703775       -0.5431059493
 C          4.1923528278       -3.4186752574       -1.2603628300
 C          5.3441870049       -2.6461067132       -0.6174416143
 H          6.2464955159       -2.8725935328       -1.1894263751
 H          5.1557133664       -1.5753501072       -0.7234111947
 C          5.5805085614       -2.9747564079        0.8632634724
 H          5.0979882880       -3.9199492165        1.1140445904
 H          6.6525110079       -3.1035104056        1.0263052054
 C          5.1089973870       -1.8923448658        1.8360758680
 H          5.5168924242       -2.1219391014        2.8239474018
 H          5.5140122741       -0.9242827000        1.5311993899
 C          3.5894731621       -1.7497996188        1.9919854687
 H          3.1475052435       -2.7241124268        2.2109982596
 H          3.4016428235       -1.0885181629        2.8429360961
 H          4.0825493782       -3.0755357835       -2.2916953170
 H          4.4308279561       -4.4836480780       -1.2795347155
 H          2.8537347201       -3.7662616766        0.4072861390
 H          2.0501279492       -3.6411501819       -1.1687948031
 O          1.9341253277       -1.1982930405       -1.3453922808
 C          1.6152446899        0.1540633302       -1.3415768760
 O          1.0609730753        0.5302361398       -2.3936751473
 H         -0.7182297726        1.1534086912       -0.8166506092
 C         -0.8484700654        1.8199984332        0.0228425897
 C          0.2285725358        2.5390142072        0.5203901915
 C          0.0207479104        3.3979582388        1.5934153147
 C         -1.2332047263        3.5217292152        2.1642105043
 C         -2.2960529286        2.7746865409        1.6908516397
 C         -2.0993338943        1.9170482719        0.6139024217
 N         -3.1557822460        1.1460769688        0.1046499152
 S         -2.8086279108       -0.4236950704       -0.4207422736
 O         -1.7946396346       -1.0159375491        0.4229425909
 O         -2.5446145671       -0.3919934658       -1.8366909683
 C         -4.3854005808       -1.2089776509       -0.1327472816
 C         -4.5931885414       -1.8951162653        1.0488196206
 C         -5.8329094785       -2.4700048924        1.2815362741
 C         -6.8396367467       -2.3462219073        0.3358018418
 C         -6.6161160964       -1.6551490358       -0.8459011565
 C         -5.3786443320       -1.0788420332       -1.0852267384
 H         -5.1536696919       -0.5402801334       -1.9910739790
 H         -7.3997382439       -1.5634684706       -1.5804403534
 H         -7.8034264999       -2.7939154135        0.5196003622
 H         -6.0077752029       -3.0107623228        2.1976202429
 H         -3.7776248552       -1.9713866171        1.7501127879
 H         -3.9818796003        1.1727544244        0.6869958931
 H         -3.2703975775        2.8512486315        2.1489585030
 H         -1.3802128344        4.1909157729        2.9981705596
 H          0.8555150427        3.9544546501        1.9926950895
 C          1.6037392638        2.3793310514       -0.0863223511
 H          2.3289955910        2.7889815127        0.6313250709
 C          1.7032972904        3.1744025922       -1.3724912649
 C          1.9461083264        4.6513036472       -1.2996425434
 C          3.0272509175        3.7370452217       -1.7906232190
 H          3.2741154875        3.7387989481       -2.8414481063
 H          3.8731868260        3.5540121560       -1.1440296358
 H          1.4473368579        5.2879738101       -2.0138311515
 H          2.0637320169        5.0930358398       -0.3219876333
 H          1.0492571867        2.8077534234       -2.1529448456
 O          2.8624541580        0.9671956411        1.9559870373
