  62
        -98.93697742
 C         -1.2737331794       -1.4877644991        0.4756838235
 C         -1.6312301683       -0.4341536385        1.3507754640
 C         -2.9205487614        0.2114256266        1.0871943412
 C         -3.6883126594       -0.2242635327        0.0715956538
 C         -5.0567776324        0.2890686051       -0.2872911522
 C         -5.0470843766        1.5286602999       -1.1914226527
 C         -4.6036112935        2.8231299841       -0.5092340683
 H         -4.8441825478        3.6441063103       -1.1875751648
 H         -5.1846998003        2.9718632959        0.4015355660
 C         -3.1054051872        2.8789750316       -0.1806019860
 H         -2.5694639423        2.1208544340       -0.7571053839
 H         -2.6938383017        3.8439217280       -0.4858080191
 C         -2.7640103021        2.6973498692        1.2982662022
 H         -3.1519479788        3.5427221345        1.8717989501
 H         -1.6736402179        2.7016412481        1.3834201922
 C         -3.2964457022        1.3989070374        1.9198969344
 H         -2.8383571011        1.2768668905        2.9045970346
 H         -4.3782873193        1.4570537699        2.0410736169
 H         -4.3999660929        1.3311727299       -2.0492185884
 H         -6.0639983123        1.6684053347       -1.5655428059
 H         -5.5607941928       -0.5203353995       -0.8200204077
 H         -5.6147075705        0.5071932929        0.6238067757
 O         -3.3046813311       -1.2326732650       -0.7546961381
 C         -2.0684120775       -1.8527152663       -0.6113370301
 O         -1.8143500203       -2.6909570228       -1.4936527444
 O         -0.9057112712       -0.0556133691        2.3109524115
 C          0.0761216642       -2.1665013561        0.6701308369
 C          0.9226665178       -1.8739986693       -0.5467485131
 C          1.5570946022       -2.7662824133       -1.4002093664
 C          2.3137520064       -2.3029136777       -2.4660755335
 C          2.4815774555       -0.9520941513       -2.7000504335
 C          1.8446825600       -0.0452657929       -1.8593198857
 C          1.0740459156       -0.5141181414       -0.8117336568
 H          0.5576858411        0.2019301262       -0.1918932149
 N          1.9715112306        1.3386438769       -2.0434660763
 S          1.9393044687        2.3569520553       -0.7159286102
 O          0.5876709742        2.5400243396       -0.2540307717
 O          2.6122579674        3.5540677214       -1.1771480557
 C          2.9431698652        1.5459966813        0.5168707851
 C          2.3856886804        1.0496257292        1.6772692275
 C          3.2052491776        0.3912069037        2.5817526695
 C          4.5567603574        0.2425223411        2.3145629757
 C          5.1034442363        0.7564181507        1.1481808067
 C          4.2904300874        1.4127537462        0.2397371675
 H          4.6794968987        1.8354295121       -0.6723332370
 H          6.1560361944        0.6442454581        0.9442250998
 H          5.1865314869       -0.2752392949        3.0206626645
 H          2.7741705833       -0.0068276796        3.4866659795
 H          1.3281262696        1.1656239373        1.8614530009
 H          2.6529551169        1.6229507009       -2.7308309529
 H          3.0811419424       -0.6006373179       -3.5253948067
 H          2.7895367429       -3.0163595917       -3.1218840365
 H          1.4606804292       -3.8283814784       -1.2697750803
 H          0.5421844127       -1.6049523922        1.4986298684
 C         -0.1316888401       -3.5746974398        1.2022637343
 C         -0.3494889236       -4.8060568589        0.3805266263
 C          0.9028002441       -4.6603147002        1.1945269009
 H          0.9974632862       -5.2675204481        2.0827847812
 H          1.8396097756       -4.4759413044        0.6953502774
 H         -1.1008199778       -5.5040618093        0.7216081250
 H         -0.3194999263       -4.7125676677       -0.6921737625
 H         -0.7333512927       -3.5152826875        2.1075317775
