  62
        -98.94616652
 C         -1.8198048400       -0.9867006394       -0.3235888510
 C         -3.1773003599       -1.2978743096       -0.0716126110
 C         -4.1484334200       -0.2633247092       -0.4444863099
 C         -3.7206451500        0.8840547512       -1.0025457890
 C         -4.5908586201        2.0250704317       -1.4555858379
 C         -4.9813793998        2.9975010307       -0.3339109169
 C         -6.0124056696        2.4637533699        0.6614057028
 H         -6.3548536794        3.3140211694        1.2546025536
 H         -6.8754811997        2.0781957604        0.1177636227
 C         -5.4757304395        1.3842211691        1.6116958718
 H         -5.7952185092        1.6057159982        2.6325239320
 H         -4.3834882895        1.4051516290        1.6064925416
 C         -5.9446537696       -0.0343929806        1.2884658907
 H         -5.4773020995       -0.7209491713        1.9990948800
 H         -7.0270219296       -0.1017294307        1.4188074508
 C         -5.5932134399       -0.5074358894       -0.1281239698
 H         -5.7674935700       -1.5848904694       -0.1830369307
 H         -6.2320819600       -0.0126868088       -0.8593824593
 H         -5.3948914298        3.8908592611       -0.8075104761
 H         -4.0770074997        3.2938081802        0.2023509831
 H         -4.0164573802        2.5754438023       -2.2037760575
 H         -5.4915975902        1.6334199721       -1.9290955880
 O         -2.4066490901        1.1373352614       -1.2438787791
 C         -1.4245246900        0.2188022210       -0.9017503901
 O         -0.2642554601        0.5884497312       -1.1613687400
 H          2.0093600200       -1.9543659598       -0.1766285426
 C          1.6338027602       -1.4561348205        0.7006458979
 C          0.2729165603       -1.3888815206        0.9516960382
 C         -0.1604441895       -0.7385693016        2.1053555089
 C          0.7436526407       -0.1567301124        2.9716457692
 C          2.1012911107       -0.2047281122        2.7039841289
 C          2.5456901804       -0.8588850813        1.5623389982
 N          3.9208032103       -0.9569139211        1.2832169178
 S          4.5383835101       -0.4993899099       -0.2030191119
 O          3.9212159298       -1.2670162389       -1.2526322424
 O          5.9703090101       -0.6493381501       -0.0599346323
 C          4.1431641201        1.2334331903       -0.3600967403
 C          5.1408247802        2.1587206900       -0.1170341797
 C          4.8402065603        3.5085572501       -0.1917666785
 C          3.5484953702        3.9101345404       -0.4985361479
 C          2.5587791201        2.9687485007       -0.7334699385
 C          2.8521776901        1.6149828106       -0.6658167497
 H          2.0858694100        0.8782763708       -0.8489385102
 H          1.5494021901        3.2658329209       -0.9706518781
 H          3.3110866903        4.9608721705       -0.5559169170
 H          5.6101079703        4.2413109599       -0.0107160180
 H          6.1307707702        1.7998151398        0.1142564798
 H          4.5125214305       -0.5917990418        2.0164560380
 H          2.8097616008        0.2549220672        3.3763639091
 H          0.3906634109        0.3446122669        3.8602490797
 H         -1.2216275494       -0.6948715217        2.3106394991
 C         -0.7529305800       -2.0048586398        0.0337986879
 H         -1.2784828399       -2.7981413403        0.5864967773
 C         -0.1593780202       -2.6055362988       -1.2231629227
 C          0.4025518097       -3.9945210788       -1.2022497440
 C         -0.8878784504       -3.7184515081       -1.9121705535
 H         -0.8989829507       -3.7372252272       -2.9916857936
 H         -1.8058666504       -4.0639628285       -1.4594317337
 H          1.2831356996       -4.2002340983       -1.7923913144
 H          0.3621589399       -4.5355507596       -0.2688628145
 H          0.3323438297       -1.8693731782       -1.8506350122
 O         -3.5571602499       -2.3844956200        0.4412361181
