  62
        -98.93911365
 C          2.3516564082        1.2112405572       -0.0863529522
 C          3.4187412020        0.8326060985        0.7633760402
 C          4.3185893322       -0.2337673594        0.2842391868
 C          4.0718929617       -0.7954337823       -0.9138416551
 C          4.8130542232       -1.9179372491       -1.5906822336
 C          4.4915028664       -3.2921797474       -0.9828464799
 C          4.4887054995       -3.3338457125        0.5428673706
 H          3.7532180317       -2.6199835772        0.9185716402
 H          4.1554079163       -4.3299487151        0.8460248106
 C          5.8399193732       -3.0709002508        1.2037262300
 H          5.7120125776       -3.2358793869        2.2765244325
 H          6.5646308561       -3.8024785848        0.8397890801
 C          6.4208993838       -1.6686845627        1.0066806320
 H          6.8726395072       -1.5635074271        0.0239588156
 H          7.2288203514       -1.5467965640        1.7339180845
 C          5.4352046868       -0.5317447456        1.2559343169
 H          5.9984670629        0.4044551978        1.3496291520
 H          4.9573224271       -0.6777220948        2.2312716150
 H          5.2114502647       -4.0161233772       -1.3685100133
 H          3.4970302452       -3.5891746481       -1.3258840546
 H          4.4942407294       -1.9174651885       -2.6354632036
 H          5.8818495968       -1.7268702825       -1.5703323374
 O          3.0230686662       -0.4075771845       -1.6944370116
 C          2.1420845232        0.5882376282       -1.3157992538
 O          1.2487800435        0.8193516191       -2.1550935340
 O          3.6192032934        1.3646485103        1.8881677557
 C          1.4057508742        2.2979572494        0.3992690427
 C          0.0820961404        1.6532974629        0.7277554585
 C         -0.1066042187        1.0787876078        1.9817204270
 C         -1.2811443354        0.4160914691        2.2849291691
 C         -2.2869066681        0.3002433449        1.3408749302
 C         -2.1000247371        0.8531415907        0.0817155740
 C         -0.9309747433        1.5421723299       -0.2120203869
 H         -0.7938189502        1.9540663734       -1.1993464957
 N         -3.1069640843        0.7191596448       -0.8918854151
 S         -3.7131682697       -0.8242111327       -1.1670570731
 O         -2.7492136630       -1.8480687609       -0.8348778788
 O         -4.1947677122       -0.8077358935       -2.5314038210
 C         -5.1130327147       -0.9229649806       -0.0686401286
 C         -6.0893719721        0.0487888046       -0.1708047816
 C         -7.1892430960       -0.0164034894        0.6694449927
 C         -7.2957826419       -1.0480820875        1.5904123068
 C         -6.3091166488       -2.0180298833        1.6783443696
 C         -5.2056871933       -1.9579355009        0.8411063331
 H         -4.4114148052       -2.6867956815        0.8766081343
 H         -6.3934444804       -2.8197323011        2.3943663781
 H         -8.1528234376       -1.0967466535        2.2434071310
 H         -7.9586697470        0.7358815036        0.6036967263
 H         -5.9699829191        0.8302982376       -0.9023603075
 H         -2.8652545822        1.1567068166       -1.7701403613
 H         -3.2002690600       -0.2263026218        1.5646373471
 H         -1.4149860747       -0.0195450912        3.2634199921
 H          0.6888524518        1.1461917223        2.7106665816
 H          1.8467744860        2.6673362665        1.3346816402
 C          1.3006663967        3.4501027224       -0.5775012808
 C          0.6928934859        4.7415012662       -0.1204955755
 C          2.1660645896        4.6571214618       -0.3806396545
 H          2.5662848722        5.1502637645       -1.2538468573
 H          2.8362925453        4.6583755932        0.4663439229
 H          0.0790128260        5.2965200203       -0.8131635262
 H          0.3618470945        4.7982717397        0.9053152949
 H          1.1195373673        3.1365076725       -1.5982215720
