  62
        -98.93353269
 C          2.5245773350        0.9800165726        0.2744106845
 C          2.6941046539       -0.1402787272        1.1183514193
 C          3.4506996631       -1.2837605580        0.5727923837
 C          3.9110641441       -1.2086926128       -0.6901250361
 C          4.6709822632       -2.2497064736       -1.4686513999
 C          3.7722920976       -3.3931642573       -1.9662339385
 C          2.7780160279       -3.9231675287       -0.9365440043
 H          2.1410430344       -3.1031332309       -0.5997317578
 H          2.1335005180       -4.6480849299       -1.4406319664
 C          3.4015466986       -4.6145422316        0.2737114280
 H          2.5826756076       -5.0218205394        0.8722414673
 H          4.0113201130       -5.4535860824       -0.0684602083
 C          4.2583509375       -3.7303210097        1.1824133060
 H          5.2401399052       -3.5569805618        0.7502728152
 H          4.4224935068       -4.2823867600        2.1125042272
 C          3.6139647183       -2.4037960013        1.5724571821
 H          4.1821488637       -1.9723222213        2.4054862228
 H          2.6137871446       -2.5961224360        1.9773467292
 H          4.4109636656       -4.2074511263       -2.3125584742
 H          3.2007769301       -3.0248156071       -2.8217141629
 H          5.0977352800       -1.7411046962       -2.3359081361
 H          5.4935389353       -2.6341353652       -0.8729123495
 O          3.6925102928       -0.1192488991       -1.4808714898
 C          3.0021937059        0.9928313172       -1.0356947494
 O          2.8888071828        1.9002378210       -1.8807008814
 O          2.2258773478       -0.1942177490        2.2893211692
 C          1.7665572277        2.1857604672        0.8016735372
 C          0.4743122278        2.3367615087        0.0366024244
 C          0.1474443545        3.4569890761       -0.7141275401
 C         -1.0529272817        3.5098468557       -1.4027703840
 C         -1.9486514352        2.4584532824       -1.3549350980
 C         -1.6372188059        1.3365262766       -0.5961266452
 C         -0.4361422948        1.2874006625        0.0948643859
 H         -0.1892894260        0.4154853972        0.6882477146
 N         -2.5349485090        0.2522324069       -0.5469686502
 S         -4.1717726468        0.6242928760       -0.3434391300
 O         -4.7197432879        0.9835210489       -1.6273744348
 O         -4.3317436469        1.6052411844        0.7066964637
 C         -4.8253823637       -0.9514811686        0.1696397055
 C         -5.0745784023       -1.9113534489       -0.7930385863
 C         -5.5651257143       -3.1450679037       -0.3962290437
 C         -5.7973920159       -3.3967643662        0.9479894736
 C         -5.5435661966       -2.4229475400        1.9020700762
 C         -5.0507175957       -1.1873950619        1.5123967338
 H         -4.8465050384       -0.3982268921        2.2183081115
 H         -5.7275769459       -2.6203615185        2.9458888314
 H         -6.1812689288       -4.3571246086        1.2540108911
 H         -5.7657606684       -3.9043735728       -1.1347471424
 H         -4.8890892234       -1.6674346743       -1.8260221541
 H         -2.2410624183       -0.4479619558        0.1207372977
 H         -2.8863618249        2.4928126367       -1.8857761667
 H         -1.2940325389        4.3845077954       -1.9881775279
 H          0.8332027972        4.2859872376       -0.7689658475
 H          1.5138620371        1.9364375638        1.8427584359
 C          2.6371796249        3.4230227130        0.7965106312
 C          2.3165493297        4.5626743213        1.7152767386
 C          3.5122612336        3.6995446704        1.9808520346
 H          4.4954175702        4.1114225580        1.8095585325
 H          3.4687391848        3.0030576866        2.8055064664
 H          2.4792055824        5.5703587355        1.3643358592
 H          1.4587906722        4.4550414100        2.3619454136
 H          3.0391922905        3.6514201084       -0.1835800353
