  62
        -98.93982382
 C          1.8127488995        0.0156364897       -0.2480513797
 C          2.7815808095       -0.6714892099        0.5256066706
 C          4.1078374495       -0.0386688900        0.5920552801
 C          4.3267760896        1.1398406195       -0.0162009307
 C          5.6118592897        1.9225032994       -0.0006845813
 C          6.6325729495        1.4722951786       -1.0547543611
 C          7.3119985194        0.1319579687       -0.7712063604
 H          8.1496995293        0.0445072282       -1.4659883104
 H          7.7256524695        0.1422878793        0.2376683096
 C          6.3982788792       -1.0894701213       -0.9431566795
 H          5.5170107192       -0.8052044415       -1.5229588196
 H          6.9225813891       -1.8586611217       -1.5147603991
 C          5.9428800393       -1.7298686804        0.3681047109
 H          6.8081287093       -2.1355033802        0.8969862311
 H          5.2740484592       -2.5606509205        0.1295689415
 C          5.1970617895       -0.7766327997        1.3109477504
 H          4.7303267496       -1.3708560392        2.1001311308
 H          5.8956021897       -0.0753611795        1.7666774699
 H          6.1355554494        1.4311365281       -2.0268310311
 H          7.4051547696        2.2428331285       -1.1095833417
 H          5.3437089798        2.9617974093       -0.2029251819
 H          6.0625827998        1.8668545900        0.9906681687
 O          3.3599477296        1.7862915892       -0.7219332710
 C          2.0992682095        1.2334554393       -0.8711620505
 O          1.3262415195        1.9137158289       -1.5770238808
 H         -1.9048687805        0.9220605899       -0.6525873598
 C         -1.6526376804        0.6929352705        0.3720633903
 C         -0.4974713804       -0.0183113995        0.6619297806
 C         -0.1737117703       -0.2614364987        1.9943029407
 C         -0.9885106202        0.2042644621        3.0086860705
 C         -2.1432158701        0.9096786720        2.7173440902
 C         -2.4738357602        1.1602874212        1.3908113601
 N         -3.6307871402        1.8820423212        1.0739404098
 S         -4.4807181004        1.5945896704       -0.3280032000
 O         -3.8109381604        2.1818540896       -1.4611425404
 O         -5.8070953103        2.1031149107       -0.0488044601
 C         -4.5503104806       -0.1792742797       -0.5174499889
 C         -4.8370591906       -0.9674659690        0.5798416717
 C         -4.9199198108       -2.3408047591        0.4157366325
 C         -4.7277651710       -2.9012253399       -0.8375213672
 C         -4.4484724410       -2.0966408806       -1.9311584677
 C         -4.3547466008       -0.7227990205       -1.7708657285
 H         -4.1239168508       -0.0618507610       -2.5913806290
 H         -4.2956968512       -2.5322955212       -2.9055259774
 H         -4.7910234511       -3.9702930099       -0.9626490065
 H         -5.1326672707       -2.9692433485        1.2653262829
 H         -4.9909104404       -0.5083215284        1.5424860414
 H         -4.2282362801        2.1165058417        1.8520655997
 H         -2.7780490400        1.2761443426        3.5095986700
 H         -0.7251027001        0.0127919727        4.0378554406
 H          0.7228435596       -0.8176715886        2.2206857209
 C          0.3962124494       -0.4991452203       -0.4522817192
 H          0.0476883093       -0.0202162308       -1.3813075595
 C          0.3355716092       -2.0066667404       -0.6644617583
 C         -0.3709905208       -2.9472009797        0.2612066124
 C         -0.9595050410       -2.6390644605       -1.0800559877
 H         -0.9429317111       -3.4001487710       -1.8450514273
 H         -1.8302439109       -2.0009268004       -1.1088777080
 H          0.0785959591       -3.9147880897        0.4229172229
 H         -0.8549995207       -2.5399590191        1.1342519222
 H          1.2348416791       -2.3863463108       -1.1376163481
 O          2.5737519794       -1.7487679995        1.1383272213
