  62
        -98.93723839
 C         -2.0552663482       -1.0915570693       -0.1086470394
 C         -2.8511147935       -0.5617882318        0.9408564129
 C         -3.5871045649        0.6740944290        0.6501618226
 C         -3.4554399815        1.2536702142       -0.5561156628
 C         -4.0716974267        2.5510988677       -1.0089845648
 C         -5.6094745605        2.5857404242       -1.0992361686
 C         -6.3052368658        3.1153103496        0.1608125691
 H         -5.6056661626        3.7490345581        0.7072306312
 H         -7.1376022240        3.7544787693       -0.1404802675
 C         -6.8761877209        2.0518065265        1.1034883561
 H         -7.8122684217        1.6724377811        0.6875622187
 H         -7.1110604731        2.5381155932        2.0526632897
 C         -5.9739962830        0.8477405295        1.3740685027
 H         -5.9742622618        0.1856313840        0.5050540157
 H         -6.4060915880        0.2762996186        2.1978093498
 C         -4.5119800732        1.2021493880        1.7080658215
 H         -4.3911654300        2.2788829488        1.8180835535
 H         -4.2167612173        0.7252122071        2.6447015862
 H         -5.8604136175        3.2468502632       -1.9302464952
 H         -5.9809663001        1.5932898367       -1.3527870574
 H         -3.7287839789        3.3489295449       -0.3458357033
 H         -3.6514960591        2.7402806548       -1.9991556644
 O         -2.6735807409        0.7216510945       -1.5334306888
 C         -1.9597407067       -0.4518617303       -1.3442024094
 O         -1.3042503998       -0.7956719739       -2.3497623900
 O         -2.9383424917       -1.1008271635        2.0759049072
 C         -1.2713558299       -2.3577407701        0.2028409573
 C          0.1546467471       -1.9816343781        0.5260104891
 C          0.6166885098       -2.0060071891        1.8370352974
 C          1.9015079892       -1.5908855217        2.1403391544
 C          2.7462595835       -1.1307548491        1.1457662931
 C          2.2893006440       -1.0931618423       -0.1646717308
 C          1.0113690830       -1.5335374553       -0.4699159788
 H          0.6585853633       -1.4777123270       -1.4890419202
 N          3.1305791122       -0.5760648539       -1.1775045630
 S          3.4270086512        1.0784541756       -1.0391031477
 O          2.3282972400        1.7601573395       -0.3907890959
 O          3.7678800126        1.5264615106       -2.3720291972
 C          4.8802271074        1.1537825646       -0.0125701941
 C          6.0455249831        0.5865657541       -0.4907445105
 C          7.1842154470        0.6333118388        0.2975406631
 C          7.1390095115        1.2444501858        1.5419881132
 C          5.9621367216        1.8120383646        2.0060564731
 C          4.8190435955        1.7678991390        1.2228580830
 H          3.8795199937        2.1897853520        1.5424553773
 H          5.9285494704        2.2870136881        2.9733900485
 H          8.0264539567        1.2794372793        2.1539629627
 H          8.1014349073        0.1939235319       -0.0598613998
 H          6.0363766117        0.1276155960       -1.4651842431
 H          2.7655908351       -0.7576871203       -2.1034491323
 H          3.7444841706       -0.7950717924        1.3752850915
 H          2.2460282128       -1.6176777665        3.1627752908
 H         -0.0502178765       -2.3315820912        2.6221676394
 H         -1.7278917056       -2.7589592055        1.1174380501
 C         -1.3598077373       -3.4124139061       -0.8807039526
 C         -1.0366135413       -4.8342284700       -0.5349660672
 C         -2.4530218041       -4.4349367519       -0.8175432569
 H         -2.9082650847       -4.7578372402       -1.7417769880
 H         -3.1428745324       -4.3783869575        0.0117939439
 H         -0.5163037233       -5.4354573312       -1.2644786164
 H         -0.7659546245       -5.0493221947        0.4875518204
 H         -1.0765462152       -3.0540695885       -1.8615986940
