  62
        -98.94760541
 C          0.7630663125        1.2700229367        0.0584603420
 C          1.4783555134        0.6018183862        1.0795243645
 C          2.4028052265       -0.4480813621        0.6320060133
 C          2.4670195537       -0.7528709148       -0.6770674740
 C          3.4351805503       -1.7252505861       -1.2843646772
 C          4.7318956522       -1.0181019787       -1.7065396364
 C          5.3318588655       -0.1188089575       -0.6255557050
 H          6.2550198097        0.3025484194       -1.0294649421
 H          4.6533728306        0.7167355961       -0.4384245615
 C          5.6338254491       -0.8316497486        0.7000261711
 H          6.6241813775       -0.5265935178        1.0445385994
 H          5.6641215653       -1.9103150193        0.5424583512
 C          4.6521289802       -0.5123376987        1.8290415001
 H          4.5505571644        0.5710483217        1.9320964525
 H          5.0729834990       -0.8910614244        2.7644258792
 C          3.2502728009       -1.1167353170        1.6774699971
 H          3.3371868150       -2.1871548019        1.4825421036
 H          2.7229715666       -0.9787040647        2.6261038400
 H          4.5194484003       -0.4010884552       -2.5825556566
 H          5.4609820738       -1.7775442475       -1.9946228430
 H          2.9726994940       -2.1635104977       -2.1693439911
 H          3.6565846922       -2.5119690876       -0.5664629476
 O          1.6916122963       -0.1542907299       -1.6159949103
 C          0.8455084831        0.8918898981       -1.2816836196
 O          0.2332664168        1.3869845404       -2.2461909733
 O          1.3627785018        0.8818221919        2.3043334264
 C         -0.1246216464        2.4435099547        0.4258301607
 C         -1.5311851494        2.2485778832       -0.0815106874
 C         -2.2842433599        3.2741158234       -0.6390906187
 C         -3.5756589522        3.0357218051       -1.0757229828
 C         -4.1432897493        1.7810359500       -0.9597808517
 C         -3.3998709837        0.7484918884       -0.3973917206
 C         -2.1082348452        0.9909821435        0.0395571594
 H         -1.5358520250        0.1898416297        0.4843583642
 N         -3.9331341914       -0.5413951777       -0.3014913111
 S         -3.3808339005       -1.6554322837        0.8024205402
 O         -4.3829931600       -2.7004818801        0.7778728406
 O         -3.1296785130       -1.0613370663        2.0951081427
 C         -1.8772734308       -2.2985349183        0.1013471273
 C         -0.8087558417       -2.5682948287        0.9322351509
 C          0.3266712044       -3.1532704436        0.3961324904
 C          0.3753261365       -3.4529912218       -0.9558093475
 C         -0.6997373430       -3.1607794821       -1.7803939792
 C         -1.8412598759       -2.5834908027       -1.2488437529
 H         -2.6974536113       -2.3500739313       -1.8596615512
 H         -0.6533447867       -3.3836727608       -2.8342201996
 H          1.2563347289       -3.9183624114       -1.3678461405
 H          1.1641485240       -3.3732212649        1.0380050373
 H         -0.8810335159       -2.3083735946        1.9770028687
 H         -4.9100012829       -0.6423540533       -0.5297464348
 H         -5.1487182376        1.5950159338       -1.3048307442
 H         -4.1488567541        3.8396817556       -1.5119902409
 H         -1.8595753582        4.2596573159       -0.7367998625
 H         -0.1591546342        2.4545932946        1.5263612155
 C          0.5127196564        3.7330559744       -0.0537096072
 C          0.3347002779        5.0056421022        0.7176666111
 C          1.6587395269        4.3043509733        0.7243610595
 H          2.4820107209        4.7462567558        0.1832314601
 H          1.9566899719        3.7798704504        1.6207256204
 H          0.2515600928        5.9332242268        0.1714331838
 H         -0.2623962590        4.9665446828        1.6162885324
 H          0.5646315915        3.7906891260       -1.1355921477
