  62
        -98.94087658
 C         -2.2843575785       -0.9341054049       -0.2374687110
 C         -3.6046866216       -1.1979627198        0.2012188523
 C         -4.6459492959       -0.3158626352       -0.3363800699
 C         -4.3132944787        0.6547140482       -1.2068655764
 C         -5.2641780095        1.6203506964       -1.8608647581
 C         -5.5916517030        2.8494750991       -1.0018219563
 C         -6.5067717175        2.5818913247        0.1937678401
 H         -7.3997178984        2.0556293940       -0.1447293348
 H         -6.8259360430        3.5535057836        0.5759852794
 C         -5.8449459934        1.7962806039        1.3345175280
 H         -6.0780861255        2.2741342042        2.2887211201
 H         -4.7590872357        1.8298198150        1.2173400145
 C         -6.2874162078        0.3366510064        1.4391131479
 H         -7.3503747011        0.2929420300        1.6860463465
 H         -5.7323670015       -0.1319104377        2.2557520912
 C         -6.0468063760       -0.4894388137        0.1685251765
 H         -6.7661640163       -0.2134880064       -0.6019159239
 H         -6.1828383216       -1.5452486702        0.4146090542
 H         -6.0807995259        3.5794848865       -1.6508362425
 H         -4.6545696662        3.2901377181       -0.6533446462
 H         -6.1866234907        1.1036383877       -2.1269913229
 H         -4.7782012250        1.9606318989       -2.7778045757
 O         -3.0337973253        0.8645502489       -1.6182906220
 C         -1.9861609611        0.0974385457       -1.1273413984
 O         -0.8653808675        0.4273920668       -1.5618997609
 O         -3.8971354404       -2.1236585445        1.0043619015
 C         -1.1505761896       -1.7884434641        0.3020204292
 C         -0.1930591157       -0.9130984568        1.0718586227
 C         -0.6820471032       -0.2040173003        2.1671590550
 C          0.1421040671        0.6343041267        2.8907315817
 C          1.4696686051        0.7892850530        2.5310816088
 C          1.9707949343        0.0800972651        1.4465181127
 C          1.1426286610       -0.7749907162        0.7306879151
 H          1.5519049481       -1.3059688563       -0.1110853663
 N          3.3319466292        0.1903604862        1.0996679673
 S          3.7805072108        0.3670563380       -0.5199963595
 O          3.2097293347        1.5770741090       -1.0703060684
 O          3.5160025788       -0.8592476744       -1.2264194764
 C          5.5416645263        0.5679546319       -0.3134668272
 C          6.3086480279       -0.5557228696       -0.0707411698
 C          7.6732445342       -0.4075457899        0.1189600842
 C          8.2456610804        0.8547444236        0.0635662850
 C          7.4639048428        1.9729454152       -0.1835583684
 C          6.0979415230        1.8314011551       -0.3726862293
 H          5.4518547889        2.6704397373       -0.5758920461
 H          7.9117540984        2.9525749148       -0.2298931771
 H          9.3081589029        0.9673006020        0.2108628500
 H          8.2847633599       -1.2749380199        0.3083880237
 H          5.8210988207       -1.5161343303       -0.0453183630
 H          3.7951175948        0.9082907180        1.6430956981
 H          2.1131653039        1.4536031675        3.0883930003
 H         -0.2513543433        1.1792866404        3.7357590549
 H         -1.7234159541       -0.3175992177        2.4370527518
 H         -1.6237370177       -2.4850596681        1.0100188226
 C         -0.4991797963       -2.5888722846       -0.8042365040
 C          0.2291449761       -3.8571436086       -0.4777137205
 C         -1.0875464309       -3.9113315416       -1.1909543407
 H         -1.0997601550       -4.1833542599       -2.2357360555
 H         -1.9544185290       -4.2478474997       -0.6411362753
 H          1.1264132630       -4.0891447450       -1.0313093449
 H          0.2577684696       -4.1617776967        0.5575312962
 H         -0.1050729724       -1.9657234659       -1.6000964608
