  62
        -98.94386382
 C          1.6677806539        1.4312103994        0.5652624906
 C          2.6585300968        1.0616420102       -0.3771446886
 C          3.4811857321       -0.1042384475       -0.0137300401
 C          3.1992765826       -0.7978367064        1.1031572316
 C          3.9162592198       -2.0383257451        1.5501464121
 C          3.2612627380       -3.3073498188        0.9867208324
 C          2.9937294933       -3.2509021525       -0.5171701121
 H          2.5627105599       -4.2118524944       -0.8065320020
 H          2.2452732696       -2.4812902949       -0.7190581403
 C          4.2371193321       -2.9781110116       -1.3745169857
 H          4.2352014588       -3.6641298049       -2.2241060574
 H          5.1399292362       -3.1814169090       -0.7972676938
 C          4.3090452689       -1.5612631559       -1.9455010173
 H          5.0967639892       -1.5388237358       -2.7033317655
 H          3.3679336532       -1.3175697356       -2.4444752417
 C          4.6189122978       -0.4523525947       -0.9325194937
 H          5.5073791070       -0.7192170363       -0.3562083081
 H          4.8371859414        0.4585728031       -1.4974159841
 H          3.9099935703       -4.1561029556        1.2111677144
 H          2.3101315361       -3.4648235473        1.5003832207
 H          3.8856764039       -2.0780111052        2.6404924377
 H          4.9550502752       -1.9825052897        1.2298098285
 O          2.1839398821       -0.4627282714        1.9406298580
 C          1.4106937804        0.6592915761        1.7024670226
 O          0.5307072397        0.8646759091        2.5630449303
 O          2.8708104137        1.6563915195       -1.4651080306
 C          0.7386880492        2.6238607158        0.3804246120
 C         -0.4660489381        2.1291874805       -0.3815085895
 C         -0.4044869094        1.8133107766       -1.7347598242
 C         -1.4997132604        1.2601779242       -2.3735396518
 C         -2.6684113938        0.9971778432       -1.6787185250
 C         -2.7348309382        1.3051944628       -0.3268539254
 C         -1.6429798570        1.8790340497        0.3084583223
 H         -1.6921056484        2.0964847514        1.3668249108
 N         -3.9015952687        1.0001441096        0.4004117562
 S         -4.4663068614       -0.5691529890        0.2527863363
 O         -5.2831524000       -0.6735824356       -0.9308605057
 O         -5.1363326848       -0.8567271576        1.5018773068
 C         -3.0175206539       -1.5974995615        0.0666228011
 C         -2.9545400879       -2.4867068653       -0.9870773175
 C         -1.8336910175       -3.2896107446       -1.1228339479
 C         -0.7940725070       -3.1833125874       -0.2121516711
 C         -0.8683092859       -2.2795670948        0.8362288917
 C         -1.9912444019       -1.4819441699        0.9834564513
 H         -2.0581575775       -0.7767341064        1.7968109508
 H         -0.0559342537       -2.1769263682        1.5393234357
 H          0.0798562954       -3.8061979358       -0.3181607654
 H         -1.7711767342       -3.9921792764       -1.9380842532
 H         -3.7813639993       -2.5289860097       -1.6773306572
 H         -3.8443447687        1.2609041953        1.3747220676
 H         -3.5236761567        0.5482444009       -2.1577752859
 H         -1.4406070057        1.0176661963       -3.4235899458
 H          0.5177212177        1.9760685897       -2.2709442612
 H          0.4026373885        2.9002415241        1.3892422197
 C          1.3823057706        3.8382402883       -0.2515903678
 C          0.7136210873        5.1690686955       -0.0878343535
 C          1.9962398931        4.8807221212        0.6316414583
 H          2.8985409722        5.3706066168        0.2980046926
 H          1.9573567632        4.7213407183        1.6997396280
 H          0.7323601128        5.8599754271       -0.9164660637
 H         -0.1962943851        5.2048560439        0.4926270198
 H          1.8779336276        3.6356795306       -1.1904248691
