  62
        -98.94789374
 C          1.6137756539        1.2070468308        0.5511235129
 C          1.3869987735        0.0132414912        1.2790959566
 C          2.2861910101       -1.1076475159        0.9790067919
 C          3.2360304426       -0.9549834626        0.0390582023
 C          4.2228197214       -2.0106052224       -0.3680552820
 C          3.7204692511       -2.8308960857       -1.5628320368
 C          2.2976128260       -3.3646023684       -1.3963577286
 H          1.5889060318       -2.5321009481       -1.4132121636
 H          2.0775103799       -3.9811011928       -2.2713642030
 C          2.0717321884       -4.1902362446       -0.1222453376
 H          1.4857077356       -5.0743982548       -0.3828142507
 H          3.0270795496       -4.5377060757        0.2736806300
 C          1.2981692659       -3.4500954348        0.9706271716
 H          0.9383640003       -4.1860419145        1.6952029501
 H          0.4279533699       -2.9687565758        0.5167799669
 C          2.0836417703       -2.3838541890        1.7452580491
 H          1.4992930866       -2.1127948426        2.6294182237
 H          3.0394527214       -2.7956570715        2.0766568069
 H          4.4066192177       -3.6660567907       -1.7184994139
 H          3.7454533715       -2.1992395526       -2.4538176064
 H          4.4132334168       -2.6652726325        0.4802865730
 H          5.1540854524       -1.5147644840       -0.6485355249
 O          3.3941576613        0.1895600489       -0.6724032617
 C          2.5671890582        1.2844635572       -0.4633180592
 O          2.7953728277        2.2440511866       -1.2249376804
 O          0.4830080158       -0.1029528059        2.1505514068
 C          0.7003641185        2.3966207628        0.8059517638
 C         -0.2299947746        2.5139034456       -0.3754957677
 C         -0.2724929012        3.5991378703       -1.2390984744
 C         -1.1057957246        3.5725233244       -2.3452492513
 C         -1.8994741632        2.4727020671       -2.6139119477
 C         -1.8734792460        1.3864810497       -1.7441141082
 C         -1.0589559334        1.4265776463       -0.6261627165
 H         -1.0288295732        0.5817087354        0.0454115314
 N         -2.6876087776        0.2676870787       -1.9597542395
 S         -2.3280796299       -1.2204851899       -1.2966433736
 O         -0.9123731989       -1.5085351991       -1.3257123274
 O         -3.1642051995       -2.1470854637       -2.0336468047
 C         -2.9281859457       -1.1276265958        0.3783557447
 C         -3.8600757703       -0.1722304298        0.7314223817
 C         -4.3354134520       -0.1505043822        2.0330269189
 C         -3.8798848741       -1.0805647263        2.9542150208
 C         -2.9507360464       -2.0388042165        2.5821663859
 C         -2.4722077248       -2.0652307745        1.2824700835
 H         -1.7445174435       -2.7917562552        0.9583307272
 H         -2.5923263129       -2.7617871051        3.2971753225
 H         -4.2483948479       -1.0581676884        3.9677260058
 H         -5.0576660550        0.5951933080        2.3245127837
 H         -4.1907244131        0.5441747889       -0.0020128064
 H         -3.1444739581        0.2086440737       -2.8565091576
 H         -2.5314507367        2.4488252990       -3.4883958730
 H         -1.1264942155        4.4175282769       -3.0168085893
 H          0.3578703838        4.4541294777       -1.0595489664
 H          0.0995394253        2.1173612560        1.6835943193
 C          1.4743385453        3.6567375788        1.1201732301
 C          0.7963202807        4.7805153674        1.8439846601
 C          1.8336628015        3.9563525346        2.5436373119
 H          2.7963158936        4.4003940052        2.7479880310
 H          1.5078909476        3.2554531538        3.2982603775
 H          1.0458085405        5.7944519319        1.5708068552
 H         -0.2362267634        4.6403704497        2.1253942549
 H          2.2056672386        3.9046383445        0.3604375461
