  62
        -98.94509101
 C         -2.3141536513       -0.4599485260        0.1764677864
 C         -1.3097499797       -1.0345884294        0.9940946021
 C         -0.9089790625       -2.4060839418        0.6501497140
 C         -1.4092183445       -2.9968556961       -0.4488917204
 C         -1.1029042896       -4.3892024068       -0.9301093123
 C          0.2006361772       -4.5000627877       -1.7320700759
 C          1.4824837684       -4.4334315807       -0.9014013736
 H          1.4149395333       -5.1406522973       -0.0735723946
 H          2.2986915103       -4.7628810576       -1.5475370571
 C          1.8200633084       -3.0371155227       -0.3609736401
 H          1.2788709683       -2.2753714613       -0.9279478077
 H          2.8843795202       -2.8368249205       -0.5120820114
 C          1.5355904570       -2.8443462258        1.1276899191
 H          1.7909682186       -1.8141484067        1.3836224693
 H          2.1794916810       -3.5065453643        1.7117081039
 C          0.0804721300       -3.0974511678        1.5417117787
 H         -0.1211984194       -4.1689658909        1.5552484537
 H         -0.0572840256       -2.7036128988        2.5520215930
 H          0.1812096433       -5.4592887862       -2.2551396113
 H          0.2164883692       -3.7090003599       -2.4859328901
 H         -1.0678221221       -5.0724962964       -0.0807035617
 H         -1.9325715143       -4.6814379138       -1.5776322247
 O         -2.3034356344       -2.3778482954       -1.2650468859
 C         -2.7811568429       -1.1146176038       -0.9660976060
 O         -3.6240750208       -0.6827094669       -1.7810184139
 O         -0.7640068697       -0.4573728315        1.9722408631
 C         -2.9132029651        0.9156379496        0.4173390947
 C         -2.0917648710        2.0129731346       -0.2212335434
 C         -2.6978537421        3.1567527615       -0.7281767565
 C         -1.9362824018        4.1461682543       -1.3235283364
 C         -0.5654683719        4.0053303729       -1.4450378299
 C          0.0514763491        2.8657931725       -0.9391210545
 C         -0.7145384958        1.8965818181       -0.3103837892
 H         -0.2344896021        1.0142362356        0.0719861279
 N          1.4384027482        2.6997626521       -1.0436107536
 S          2.2018687487        1.2211259232       -1.2657993994
 O          3.1779740704        1.4596086019       -2.3107589256
 O          1.2561126732        0.1615171758       -1.5143771808
 C          3.0799030273        0.9766252338        0.2679280313
 C          4.4565269470        1.1014401537        0.2478683985
 C          5.1700024725        0.9374498127        1.4236353444
 C          4.4979470654        0.6549129977        2.6029382165
 C          3.1173757161        0.5361077082        2.6097480521
 C          2.3969592717        0.6979693764        1.4352460156
 H          1.3226662107        0.5978022759        1.4356429385
 H          2.5861632953        0.3130912377        3.5214729483
 H          5.0500770081        0.5259257839        3.5204358683
 H          6.2440675579        1.0301881641        1.4161517991
 H          4.9367282261        1.3195409976       -0.6919339063
 H          1.9067914543        3.4191982717       -1.5742542821
 H          0.0244002878        4.7668421701       -1.9323797447
 H         -2.4163701970        5.0297320948       -1.7161268944
 H         -3.7708077252        3.2605128337       -0.6705719598
 H         -3.8915552127        0.9063833224       -0.0847181318
 C         -3.1340143990        1.2194002564        1.8879459801
 C         -4.2671980320        2.1058947686        2.3034161712
 C         -4.3227457353        0.6355172650        2.5880062213
 H         -4.2046864809        0.2958411054        3.6056993227
 H         -4.9964854279        0.0275892682        2.0011145277
 H         -4.1117437564        2.7840103328        3.1282473572
 H         -4.9163113085        2.4923851517        1.5326455001
 H         -2.2113733847        1.2831614185        2.4498074039
