  62
        -98.94094742
 C         -1.9424232070       -1.1037114041        0.0755187784
 C         -2.3798816163       -0.2374064588        1.1113135020
 C         -3.0768129310        0.9820918844        0.6936353941
 C         -3.2286334866        1.2438305384       -0.6167268873
 C         -3.8842118542        2.4622368826       -1.2081785221
 C         -5.4139447747        2.3714632419       -1.2970219068
 C         -6.1513377918        2.4842840656        0.0379021093
 H         -5.8097292932        3.3756317111        0.5648746475
 H         -7.2091113474        2.6262513281       -0.1919599811
 C         -6.0038218548        1.2568561833        0.9478532525
 H         -5.6461891927        0.4088664076        0.3592664677
 H         -6.9819087203        0.9801094522        1.3474859776
 C         -5.0680437323        1.4601690149        2.1393690368
 H         -5.4830344762        2.2189315334        2.8062517355
 H         -5.0084899448        0.5199124962        2.6930746176
 C         -3.6409958010        1.8748234520        1.7573886868
 H         -3.6250552099        2.9135371634        1.4274744506
 H         -3.0056119128        1.7785507430        2.6411117980
 H         -5.6797010745        1.4296421458       -1.7826611904
 H         -5.7499727610        3.1851699075       -1.9438386231
 H         -3.6020310276        3.3434889107       -0.6309536009
 H         -3.4843440129        2.5691025645       -2.2191405254
 O         -2.7673221645        0.4080303434       -1.5826802323
 C         -2.1170861177       -0.7803921629       -1.2699416446
 O         -1.7611550115       -1.4270094040       -2.2748679315
 H          0.3788747082       -1.3040397030       -1.3848253019
 C          0.9253793553       -1.5229310421       -0.4786054934
 C          0.2622133450       -2.0951835742        0.5990078641
 C          0.9842751562       -2.3598467979        1.7562525028
 C          2.3335067586       -2.0580138930        1.8315121575
 C          2.9855620294       -1.4741182298        0.7594072788
 C          2.2702107882       -1.2043354621       -0.3993610639
 N          2.9217242221       -0.5471261634       -1.4791151330
 S          2.9093830765        1.1286571822       -1.2656194676
 O          1.6433648531        1.5836330470       -0.7303237920
 O          3.3015403744        1.6914214662       -2.5393048154
 C          4.2023089444        1.3750364381       -0.0701364292
 C          5.5131315244        1.2298784501       -0.4813150133
 C          6.5264395723        1.3850875090        0.4510159657
 C          6.2124739163        1.6781118362        1.7701209728
 C          4.8912289988        1.8215069836        2.1658635948
 C          3.8725175142        1.6680998780        1.2382845445
 H          2.8305651811        1.7648311710        1.4996716438
 H          4.6484284181        2.0483430071        3.1915213735
 H          7.0022566821        1.7958803619        2.4951301432
 H          7.5551167325        1.2761203846        0.1475557284
 H          5.7075298881        1.0059276497       -1.5169678236
 H          2.4731949116       -0.7433014490       -2.3653003113
 H          4.0339597015       -1.2296681379        0.8096022241
 H          2.8807078545       -2.2706193736        2.7367836285
 H          0.4747680745       -2.7870653707        2.6074927309
 C         -1.2178755118       -2.3657077079        0.5137008135
 H         -1.5779766569       -2.5536118795        1.5376699487
 C         -1.5611423529       -3.5898041726       -0.3227155691
 C         -0.5887833000       -4.2709671841       -1.2342176331
 C         -0.9938553488       -4.9282548135        0.0487638136
 H         -1.6380825981       -5.7932340643        0.0091221579
 H         -0.2659337518       -4.9521690798        0.8456407715
 H         -0.9694396305       -4.6608896852       -2.1659290530
 H          0.4103530245       -3.8712664873       -1.3095449938
 H         -2.5939979583       -3.5737909134       -0.6554339051
 O         -2.1966691480       -0.4810079739        2.3338001691
