  62
        -98.94610543
 C          1.5808359189        1.3147169502        0.4001051514
 C          1.5368997157        0.3047690583       -0.5912217582
 C          2.3997766751       -0.8608948270       -0.3522292726
 C          3.1281677912       -0.9407462514        0.7758272502
 C          4.0204307262       -2.0836833815        1.1772195825
 C          5.4306211447       -2.0151372338        0.5753373453
 C          5.5146522792       -2.3222645600       -0.9203957239
 H          6.5716906535       -2.4495249605       -1.1623347669
 H          5.0185285559       -3.2716861884       -1.1245357729
 C          4.9301961093       -1.2282915472       -1.8249725701
 H          4.8335897104       -0.2996392024       -1.2577474360
 H          5.6204967510       -1.0289386748       -2.6477845974
 C          3.5760683476       -1.5738738197       -2.4448369181
 H          3.2410148352       -0.7167401874       -3.0346367506
 H          3.6892984255       -2.4233432062       -3.1221835845
 C          2.4793094555       -1.9066511482       -1.4245116304
 H          2.6599663483       -2.8898963405       -0.9899800688
 H          1.5203646139       -1.9262635733       -1.9487717731
 H          5.8449954725       -1.0227290642        0.7672117281
 H          6.0482980142       -2.7414031426        1.1085227524
 H          3.5536447814       -3.0301524186        0.9027546327
 H          4.1088528767       -2.0410196631        2.2648219653
 O          3.1161998957        0.0353827259        1.7208769017
 C          2.3646494140        1.1843889958        1.5514018429
 O          2.4716915402        2.0063469940        2.4821956196
 O          0.8235391088        0.3503514781       -1.6280644095
 C          0.7385124514        2.5791830027        0.3022486159
 C         -0.6969415867        2.1815406379        0.5430477627
 C         -1.1956099783        2.1398126827        1.8417976799
 C         -2.4733833029        1.6742984221        2.0935792232
 C         -3.2691908123        1.2108849498        1.0599699823
 C         -2.7719935621        1.2353014176       -0.2359672854
 C         -1.5080035949        1.7464664037       -0.4933818011
 H         -1.1339532807        1.7483798425       -1.5044789582
 N         -3.5382103455        0.6875495096       -1.2824372699
 S         -4.1587458087       -0.8422039320       -0.9958627429
 O         -4.1799455013       -1.5022776913       -2.2830105396
 O         -5.4398082197       -0.7183971740       -0.3434542195
 C         -3.0143848737       -1.6551086844        0.1124129730
 C         -1.6679198564       -1.6773821858       -0.1940946122
 C         -0.7939618829       -2.3000188144        0.6826677380
 C         -1.2748711348       -2.8949121036        1.8384567539
 C         -2.6303651235       -2.8727489954        2.1269194846
 C         -3.5084544816       -2.2443124034        1.2590383252
 H         -4.5679849716       -2.1914163723        1.4504328229
 H         -3.0032414994       -3.3362960982        3.0259883355
 H         -0.5863394587       -3.3743179903        2.5163887648
 H          0.2619923000       -2.3019547109        0.4607671671
 H         -1.2991074831       -1.2028898905       -1.0901551559
 H         -3.0618012409        0.7111428204       -2.1732835428
 H         -4.2580216845        0.8193354650        1.2376645193
 H         -2.8489879732        1.6562034340        3.1051610475
 H         -0.5598063466        2.4597525295        2.6552517830
 H          1.0602071897        3.2204693251        1.1327232616
 C          0.9582457742        3.3223755581       -0.9987665422
 C          0.4667255710        4.7322513669       -1.1233744134
 C          1.9369809528        4.4556484467       -1.0374104431
 H          2.5398103042        4.5856412210       -1.9238317029
 H          2.4513511826        4.7048600715       -0.1206345821
 H          0.0580470970        5.0557178111       -2.0684672726
 H         -0.0182281682        5.1678850693       -0.2628440080
 H          0.9065331800        2.6903638189       -1.8758871353
