  62
        -98.94022321
 C          2.0517414102        1.2260533098       -0.0414710611
 C          2.3631908299        0.0448869590       -0.7607118700
 C          3.7835328299       -0.3456929011       -0.7667761799
 C          4.6857916101        0.4106440994       -0.1178820107
 C          6.1493487401        0.0990807293       -0.0049816807
 C          6.4448597002       -0.7328201095        1.2508616400
 C          5.5274823201       -1.9439492092        1.4206426014
 H          5.8492528202       -2.4716405684        2.3211201018
 H          4.5068219002       -1.5976236990        1.5993399512
 C          5.5301417198       -2.9147545004        0.2315595023
 H          5.5926841697       -3.9359303400        0.6135636232
 H          6.4145311497       -2.7448667311       -0.3837715480
 C          4.2801440096       -2.8448266111       -0.6477956376
 H          4.2863792694       -3.7100454317       -1.3162702467
 H          3.3862457097       -2.9221343004       -0.0231958073
 C          4.1491051496       -1.5919396519       -1.5228640587
 H          5.0689042495       -1.4426088425       -2.0922508890
 H          3.3315590295       -1.7660180625       -2.2288130584
 H          7.4838483302       -1.0645956397        1.2082708502
 H          6.3289550204       -0.0905774387        2.1269781394
 H          6.6976631302        1.0407030493        0.0568406183
 H          6.4709588699       -0.4393021216       -0.8944101302
 O          4.3502960204        1.5366943501        0.5615283282
 C          3.0330239504        1.9567888903        0.6357598281
 O          2.8641322407        2.9816366010        1.3258927171
 O          1.5192784398       -0.6554184314       -1.3763080092
 C          0.6276690403        1.7417371001        0.0948608687
 C         -0.2891382998        0.6113863806        0.4890728499
 C         -0.2428682796        0.1296965218        1.7936869504
 C         -1.0524211097       -0.9181337877        2.1911530515
 C         -1.9218662299       -1.5113359585        1.2930936122
 C         -1.9699943601       -1.0421944997       -0.0126508182
 C         -1.1688258700        0.0219460798       -0.4050056494
 H         -1.2005975201        0.3637426388       -1.4277514997
 N         -2.8472349303       -1.6489090005       -0.9323920175
 S         -4.4658215202       -1.7155324899       -0.5158043271
 O         -4.6637952502       -2.7218287589        0.4965071439
 O         -5.1770342105       -1.9122060410       -1.7587012468
 C         -4.8125122699       -0.0992234592        0.1532147714
 C         -4.8581931196        0.0842597221        1.5200789612
 C         -5.0493939294        1.3638163426        2.0170639900
 C         -5.1868471994        2.4314165018        1.1437621990
 C         -5.1415873097        2.2300313605       -0.2275358108
 C         -4.9475332799        0.9538787800       -0.7299048596
 H         -4.9138242801        0.7553839989       -1.7892264594
 H         -5.2519501797        3.0622859798       -0.9042031315
 H         -5.3319007392        3.4267204422        1.5333854781
 H         -5.0865263492        1.5238467236        3.0825641799
 H         -4.7505352196       -0.7722282073        2.1647660720
 H         -2.7338536804       -1.3103631014       -1.8766737678
 H         -2.5557450499       -2.3349465881        1.5798027431
 H         -1.0026147995       -1.2811209968        3.2067027319
 H          0.4459796106        0.5844023824        2.4929175598
 H          0.6670355005        2.4513436609        0.9367380480
 C          0.1209386402        2.5282400390       -1.1051343320
 C          1.0389402602        3.4459976782       -1.8546222730
 C          0.5083693199        2.2117360176       -2.5170427817
 H         -0.2385659602        2.3287037769       -3.2892068617
 H          1.1810007698        1.3857625174       -2.6848395811
 H          0.6618317602        4.4062852479       -2.1724061639
 H          2.0775480002        3.4613560683       -1.5572117832
 H         -0.8928343397        2.8846306493       -0.9481406221
