  62
        -98.93742952
 C         -1.8645305398       -0.3117487608       -0.0627447506
 C         -2.9402479099       -1.1042458406        0.4056938698
 C         -4.2319459899       -0.4200676805        0.5621671994
 C         -4.3123214398        0.8949038994        0.2889086087
 C         -5.5702820098        1.7156775594        0.3204353182
 C         -6.4076293697        1.4410078788       -0.9452102717
 C         -7.7512355298        0.7624420290       -0.6774194214
 H         -8.4478115798        1.5012940392       -0.2756450218
 H         -8.1453507497        0.4273161285       -1.6392234313
 C         -7.7186454298       -0.4250634205        0.2895455092
 H         -8.6672271799       -0.9538876306        0.1747621094
 H         -7.6885492799       -0.0604702100        1.3173654790
 C         -6.5710429899       -1.4232221406        0.0886881098
 H         -6.2046611698       -1.3867275612       -0.9374850802
 H         -6.9641492499       -2.4290103706        0.2501699103
 C         -5.3881282299       -1.2437628902        1.0586525597
 H         -5.7507005699       -0.8320287497        2.0045336095
 H         -4.9590081599       -2.2272832501        1.2714067003
 H         -6.5966336397        2.3802442086       -1.4673400622
 H         -5.8135373197        0.8215787785       -1.6205376113
 H         -6.1411381698        1.4811877599        1.2160788883
 H         -5.2731317098        2.7638332795        0.3594170077
 O         -3.2499694998        1.6287340592       -0.1326953216
 C         -2.0022987198        1.0509201290       -0.3249558713
 O         -1.1294422997        1.8451224988       -0.7220998816
 H          1.6513159302        0.6876607687       -0.7956892809
 C          1.5209238702        0.4655699892        0.2493643892
 C          0.4872778101       -0.3511716605        0.6777277996
 C          0.3362061101       -0.5788666298        2.0443592497
 C          1.1937696900        0.0031181706        2.9564759594
 C          2.2265138401        0.8178944004        2.5246840891
 C          2.3852855201        1.0540156897        1.1646943789
 N          3.4081367302        1.9003004894        0.7094074786
 S          4.3536882502        1.5104702987       -0.6096676812
 O          5.4402445603        2.4640725387       -0.5655680016
 O          3.5664813903        1.4926456881       -1.8151988312
 C          4.9753867902       -0.1223339211       -0.2497081503
 C          6.1489982601       -0.2368090808        0.4702191098
 C          6.6124503801       -1.4993177906        0.8023544705
 C          5.8926958601       -2.6209364808        0.4188628610
 C          4.7156021901       -2.4889022211       -0.3013363791
 C          4.2487284702       -1.2287332713       -0.6411324898
 H          3.3406286502       -1.0899707916       -1.2037245399
 H          4.1572236101       -3.3612527613       -0.6013297587
 H          6.2517154901       -3.6039781207        0.6797068915
 H          7.5299842701       -1.6050478103        1.3584392206
 H          6.6812959102        0.6612239794        0.7389577294
 H          3.9715287502        2.3057897298        1.4422316984
 H          2.8950054100        1.2799057707        3.2352989689
 H          1.0618068300       -0.1794338788        4.0122201295
 H         -0.4748903700       -1.2110350996        2.3787764300
 C         -0.5112901698       -0.9736584210       -0.2651842002
 H         -0.6573104799       -2.0214913008        0.0337490904
 C         -0.1013962598       -0.9384206117       -1.7214604702
 C          0.8645276102       -1.9567914720       -2.2465219596
 C         -0.5813918797       -2.0246584322       -2.6350673896
 H         -0.8589075997       -1.7627954327       -3.6451415598
 H         -1.1914357398       -2.8041741020       -2.2024286193
 H          1.2324067302       -2.6972484617       -1.5521372692
 H          1.5817252303       -1.6489819324       -2.9931812697
 H         -0.0552300697        0.0652268481       -2.1289187607
 O         -2.8241844099       -2.3287276804        0.6812122704
