  62
        -98.94501153
 C          0.6557530633        1.6442535485       -1.0964202481
 C          1.9241539223        1.9182697291       -0.5252520464
 C          2.9503222642        0.8837097981       -0.6833830478
 C          2.6492179350       -0.2551764830       -1.3315962856
 C          3.5727100886       -1.4222456142       -1.5530760067
 C          3.6478686807       -2.3786895788       -0.3548433186
 C          4.4556132836       -1.8631186908        0.8368108181
 H          5.4255469222       -1.5016102547        0.4923986716
 H          4.6382982141       -2.7171360858        1.4924211805
 C          3.7501999333       -0.7672427721        1.6482689107
 H          3.8530862028       -0.9846489507        2.7146090434
 H          2.6789564807       -0.7811344628        1.4306180092
 C          4.2945762215        0.6439368326        1.4234747183
 H          5.3195737060        0.7039223517        1.7982208040
 H          3.6817130531        1.3396824185        2.0025463007
 C          4.2843338378        1.1080698206       -0.0381683137
 H          5.0673442656        0.5981615441       -0.5996179904
 H          4.4835479543        2.1828158658       -0.0548050725
 H          4.1037541490       -3.3085709632       -0.7039123149
 H          2.6324312938       -2.6067865285       -0.0195995966
 H          4.5730494025       -1.0624266267       -1.7962295838
 H          3.1820136736       -1.9716630283       -2.4124558971
 O          1.4340183311       -0.4718653388       -1.8934101994
 C          0.3976369953        0.4489670902       -1.7692953897
 O         -0.6585996099        0.0778824562       -2.3115234354
 O          2.1868731717        2.9896007913        0.0872027875
 C         -0.4411625389        2.6604666548       -0.8264230060
 C         -1.0820312500        2.3309155560        0.4992722112
 C         -1.3081188838        3.3008696171        1.4681153694
 C         -1.8352466810        2.9513451876        2.6997871042
 C         -2.1137125677        1.6297624357        3.0003900492
 C         -1.8897705328        0.6531363939        2.0364842242
 C         -1.4123148943        1.0146102820        0.7875502232
 H         -1.2580088074        0.2506084494        0.0430317052
 N         -2.1327910320       -0.7048468077        2.2875281381
 S         -1.1039211488       -1.8463851706        1.6122867814
 O         -1.2492959543       -3.0058622220        2.4712558735
 O          0.2425746907       -1.3419026780        1.4731932312
 C         -1.8075089900       -2.2363758596        0.0265241307
 C         -0.9685790630       -2.7019702014       -0.9645113414
 C         -1.5080540749       -3.0580813452       -2.1891995587
 C         -2.8723027971       -2.9437794023       -2.3991831255
 C         -3.7029053877       -2.4776765410       -1.3920473533
 C         -3.1698135325       -2.1232663020       -0.1637693406
 H         -3.7852909295       -1.7498376888        0.6379921301
 H         -4.7635375539       -2.3836270107       -1.5621304333
 H         -3.2887057049       -3.2131190419       -3.3570867064
 H         -0.8586962488       -3.4086872964       -2.9752224231
 H          0.0914550261       -2.7548829274       -0.7702983985
 H         -2.3786778471       -0.9341220315        3.2394879462
 H         -2.4904407565        1.3531835250        3.9732669818
 H         -2.0072906884        3.7133741403        3.4447431926
 H         -1.0461698448        4.3281500794        1.2615031734
 H          0.0788314480        3.6250763373       -0.7108279371
 C         -1.4456097060        2.8121794793       -1.9573809659
 C         -2.8362562812        2.2632206325       -1.8973171613
 C         -2.6137644769        3.7411375820       -1.8026887470
 H         -2.8928371038        4.3629509636       -2.6396511330
 H         -2.7551835945        4.2058983996       -0.8386768082
 H         -3.2487945856        1.8514845110       -2.8051000386
 H         -3.1337137685        1.7314182326       -1.0072746303
 H         -0.9632950789        2.7913169532       -2.9290108465
