  62
        -98.94604680
 C         -1.4559299074       -1.0692019448        0.0827430312
 C         -2.3747990916       -0.7096905346        1.0955301794
 C         -3.0008752080        0.6098848962        0.9494890999
 C         -2.6460133567        1.4071328275       -0.0747848930
 C         -3.1727028854        2.7919923006       -0.3389000084
 C         -4.5053064460        2.8183243011       -1.1001099511
 C         -5.7276991062        2.3891877617       -0.2878403408
 H         -5.7631964133        2.9577566406        0.6421103715
 H         -6.6104974352        2.6622118248       -0.8693628104
 C         -5.7870510611        0.8868566276        0.0220779413
 H         -5.1082962729        0.3497600867       -0.6443406868
 H         -6.7937658355        0.5132099618       -0.1780793071
 C         -5.4495748975        0.5238694025        1.4682459540
 H         -5.4847568336       -0.5643103408        1.5656800956
 H         -6.2025822306        0.9454492341        2.1379070385
 C         -4.0652897007        0.9965665805        1.9313447172
 H         -4.0690839678        2.0753683617        2.0872374682
 H         -3.8359035362        0.5070411358        2.8813902484
 H         -4.6652030568        3.8438632835       -1.4409203850
 H         -4.4152923760        2.1839478644       -1.9847712827
 H         -3.2802405895        3.3306114968        0.6031770271
 H         -2.4222328754        3.3026079147       -0.9460337445
 O         -1.7230049813        1.0418503509       -1.0034404786
 C         -1.1228797183       -0.2106540894       -0.9662082031
 O         -0.3253512439       -0.4266014770       -1.8946483287
 O         -2.6495513006       -1.4484975065        2.0802171284
 C         -0.7665186284       -2.4196892861        0.1516602882
 C          0.7293345488       -2.2249799345        0.1834067697
 C          1.6156039364       -2.9430897271       -0.6076979873
 C          2.9748535838       -2.6834876405       -0.5530624486
 C          3.4791170331       -1.7085059000        0.2869959141
 C          2.6012895651       -0.9926065660        1.0911307817
 C          1.2432277036       -1.2592288828        1.0406802099
 H          0.5630339704       -0.6949901193        1.6673685591
 N          3.1011029788        0.0181141800        1.9372670395
 S          4.0307158057        1.2005120048        1.1948235606
 O          5.3702141961        0.7013201360        1.0097086345
 O          3.9037520470        2.3685263826        2.0383717641
 C          3.2591085979        1.4778621811       -0.3879755593
 C          2.0167830711        2.0800628568       -0.4090566043
 C          1.3810957440        2.2632089363       -1.6250366302
 C          1.9910083379        1.8331657473       -2.7927223355
 C          3.2373846179        1.2294836570       -2.7548802368
 C          3.8808381202        1.0474054993       -1.5414783724
 H          4.8506729453        0.5832819437       -1.4675812650
 H          3.7058252561        0.8933993594       -3.6658862223
 H          1.4833819581        1.9634505571       -3.7350300151
 H          0.4045897156        2.7190996030       -1.6584724863
 H          1.5689518715        2.4019977545        0.5186769725
 H          2.3859796157        0.4492895685        2.5055807553
 H          4.5324272371       -1.4841413273        0.3326116303
 H          3.6506180618       -3.2450399099       -1.1796795446
 H          1.2423319465       -3.7002839667       -1.2771656588
 H         -1.0790549845       -2.8622632042        1.1093902704
 C         -1.2394837455       -3.3134235929       -0.9754551769
 C         -1.2724127397       -4.8013611370       -0.7991988730
 C         -2.5518514448       -4.0221660531       -0.8323932787
 H         -3.1890814209       -4.1092787928       -1.6996487859
 H         -3.0922155061       -3.8826730295        0.0927296125
 H         -1.0336573155       -5.4270625805       -1.6459053970
 H         -0.9474124290       -5.2002898555        0.1497902474
 H         -0.9892759600       -2.9163636176       -1.9527941149
