  62
        -98.93954819
 C          2.4563502902        1.0459593757        0.5207767987
 C          2.3211748843       -0.2637459679       -0.0046461514
 C          3.4479735295       -1.1726266862        0.2564736742
 C          4.4953605875       -0.7582065728        0.9898426312
 C          5.7077572877       -1.5739930359        1.3479088990
 C          6.7883594634       -1.5949433086        0.2580231753
 C          6.4510973586       -2.4304703637       -0.9776914123
 H          6.1463680457       -3.4301956471       -0.6666667009
 H          7.3724297669       -2.5353657354       -1.5540790456
 C          5.3712866539       -1.8191338197       -1.8815318134
 H          5.6934023283       -1.8761636088       -2.9237935274
 H          5.2526708518       -0.7597419987       -1.6421369870
 C          4.0072777117       -2.5034700665       -1.7903683493
 H          4.0877411372       -3.5302339093       -2.1539995920
 H          3.3113969997       -1.9698553480       -2.4430044031
 C          3.4078243609       -2.5300397815       -0.3782187976
 H          3.9346950541       -3.2558243284        0.2406567899
 H          2.3594577308       -2.8285622905       -0.4553071825
 H          7.6968096996       -2.0019052260        0.7080538207
 H          7.0000385390       -0.5665212473       -0.0440737676
 H          5.4064475559       -2.5951100480        1.5832426193
 H          6.1330133276       -1.1209136724        2.2460660266
 O          4.5613445239        0.4904503670        1.5246124537
 C          3.5578640389        1.4176364429        1.2971774795
 O          3.7548259092        2.5228198185        1.8415626762
 O          1.3289506051       -0.6706489819       -0.6603217298
 C          1.3884236817        2.1091741702        0.3225203860
 C          0.0273394204        1.5323139350        0.6218871028
 C         -0.3014057012        1.2418394020        1.9428514040
 C         -1.5295501129        0.6944218867        2.2607001680
 C         -2.4535792237        0.4177311364        1.2682563775
 C         -2.1355128567        0.7028179065       -0.0523070092
 C         -0.9057851665        1.2680848339       -0.3670293012
 H         -0.6623605491        1.4652092827       -1.3995387083
 N         -3.0494159290        0.3945672927       -1.0694265355
 S         -4.6784505407        0.7075299543       -0.8705080430
 O         -5.2121129575        0.7892912625       -2.2128543936
 O         -4.9000475265        1.8570581385       -0.0236147619
 C         -5.3094583857       -0.7607549251       -0.0847992338
 C         -6.0808968137       -0.6536911560        1.0556388859
 C         -6.5727509819       -1.8086610270        1.6437059552
 C         -6.2868843891       -3.0438602437        1.0829734164
 C         -5.5126152102       -3.1342423006       -0.0641992293
 C         -5.0190338168       -1.9834222751       -0.6574687062
 H         -4.4143698273       -2.0131605165       -1.5485674388
 H         -5.2910221238       -4.0965782494       -0.4968999576
 H         -6.6691310168       -3.9416575034        1.5425772848
 H         -7.1748679505       -1.7404424303        2.5354923964
 H         -6.2725184214        0.3273672085        1.4604992632
 H         -2.7271918523        0.6074020245       -2.0011969964
 H         -3.4108517799       -0.0151632298        1.5085036700
 H         -1.7695578526        0.4745131650        3.2900311911
 H          0.4254578668        1.4456689710        2.7178146932
 H          1.6040812950        2.8734913568        1.0868321401
 C          1.4565917969        2.8157923219       -1.0236214898
 C          2.7807206922        3.1147337504       -1.6593893622
 C          1.8547793937        2.1202330227       -2.2891975347
 H          1.3528857801        2.3988712569       -3.2047970193
 H          2.1050169094        1.0729508269       -2.2313991186
 H          2.9170104765        4.0716628569       -2.1402648086
 H          3.6655718632        2.7477013329       -1.1596678713
 H          0.6967854355        3.5872819610       -1.1106306414
