  62
        -98.93830465
 C          1.3257794848        1.5857944852       -0.1745073698
 C          2.4523104489        1.3081861390        0.6383427001
 C          3.3130642159        0.1831434039        0.2298793254
 C          2.9752822692       -0.5307627734       -0.8585409723
 C          3.6734059354       -1.7255910890       -1.4560810850
 C          4.1168695814       -2.8149055371       -0.4668824605
 C          5.6352585220       -2.9035693128       -0.3078475106
 H          5.8930623896       -3.9057562455        0.0416899770
 H          6.0965378584       -2.7731323870       -1.2890368672
 C          6.2425727295       -1.9024358241        0.6736508424
 H          5.9805265428       -2.1927846532        1.6934151784
 H          7.3294002713       -1.9726807373        0.5862283029
 C          5.8285455110       -0.4433580469        0.4676554158
 H          6.5990361755        0.1861009878        0.9181831467
 H          5.8006665964       -0.1981728611       -0.5932446175
 C          4.4902042987       -0.0818509872        1.1284614917
 H          4.2111270085       -0.8546198223        1.8509801193
 H          4.6056555718        0.8390193058        1.7086441260
 H          3.6455958552       -2.6497637484        0.5009134673
 H          3.7605212383       -3.7750723409       -0.8431642743
 H          2.9665451188       -2.1419034666       -2.1775819295
 H          4.5327890227       -1.3757909052       -2.0327621879
 O          1.8838860217       -0.2245983432       -1.6152482829
 C          1.0334642628        0.8226741070       -1.3034484452
 O          0.0849494860        0.9508427249       -2.1015242615
 O          2.7307459337        1.9760712022        1.6695229336
 C          0.3910842997        2.7020357049        0.2658323436
 C         -0.8632400343        2.0401094958        0.7792033895
 C         -0.9291192411        1.6171027388        2.1038167133
 C         -2.0199769156        0.9030772181        2.5646779493
 C         -3.0544691478        0.5696159630        1.7074330480
 C         -2.9891853238        0.9769195763        0.3817622799
 C         -1.9158532570        1.7319172282       -0.0689531155
 H         -1.8770500212        2.0313471611       -1.1039744671
 N         -3.9985585432        0.5774265658       -0.5150197410
 S         -4.3798120446       -1.0540619914       -0.4937141044
 O         -4.7727642545       -1.3797768350       -1.8473481935
 O         -5.3831617611       -1.2918850414        0.5158132017
 C         -2.8816006010       -1.9211285654       -0.0477463320
 C         -2.9120490869       -2.8081129191        1.0097975874
 C         -1.7535858318       -3.4845086685        1.3556463188
 C         -0.5860149933       -3.2615042693        0.6425283522
 C         -0.5725134340       -2.3702214653       -0.4186588300
 C         -1.7283224799       -1.6923674167       -0.7717769118
 H         -1.7209089359       -0.9868433620       -1.5881734933
 H          0.3339681338       -2.1853971906       -0.9731336480
 H          0.3189955846       -3.7827627123        0.9124275502
 H         -1.7632053569       -4.1788879865        2.1802639633
 H         -3.8396750542       -2.9452404739        1.5415036884
 H         -3.8285562254        0.8846164278       -1.4624479465
 H         -3.9024064859       -0.0076115027        2.0395094566
 H         -2.0601540489        0.5889230956        3.5963286863
 H         -0.1027345500        1.8392754902        2.7638784115
 H          0.8949142465        3.1900708017        1.1100032467
 C          0.1459072998        3.7301765874       -0.8176061773
 C         -0.5012310220        5.0315875996       -0.4518787016
 C          0.9496285696        4.9945264026       -0.8240119131
 H          1.2496437929        5.4084116052       -1.7750884101
 H          1.6816659147        5.1266557452       -0.0409081635
 H         -1.2000332338        5.4741709032       -1.1451554504
 H         -0.7548476274        5.1857639479        0.5860023161
 H         -0.0961414126        3.2983934177       -1.7806110802
