  62
        -98.94490925
 C         -1.8730827910       -1.0750914123       -0.1954714882
 C         -3.0183669997       -1.1574435618        0.6421027207
 C         -4.2459462633       -0.5380016925        0.1345061037
 C         -4.2441669668        0.0443925608       -1.0778550795
 C         -5.4216002903        0.6937679012       -1.7526148283
 C         -5.6631241169        2.1482031107       -1.3260945976
 C         -6.2269475498        2.3273271493        0.0840596946
 H         -7.1108576235        1.6999428112        0.2031324033
 H         -6.5513488540        3.3663517007        0.1695580586
 C         -5.2256902169        2.0291818978        1.2089815292
 H         -5.2726386609        2.8228629114        1.9580797700
 H         -4.2105509904        2.0330991593        0.8046938930
 C         -5.4636670992        0.7056170699        1.9361809377
 H         -6.4218681152        0.7423242693        2.4591372978
 H         -4.6761486104        0.5801921596        2.6836605607
 C         -5.4523854380       -0.5276608706        1.0235887307
 H         -6.3642943388       -0.5631963709        0.4278348039
 H         -5.4092937656       -1.4197329553        1.6531282335
 H         -6.3718133468        2.5820392381       -2.0353899140
 H         -4.7242829278        2.6998394004       -1.4156936657
 H         -6.3204308093        0.1052418334       -1.5662533339
 H         -5.2125639214        0.6797409330       -2.8245118331
 O         -3.1352057135        0.0882225264       -1.8593487060
 C         -1.9241687104       -0.4436867300       -1.4380308749
 O         -1.0052676603       -0.2838643220       -2.2682265680
 O         -3.0138762153       -1.7351022035        1.7611594932
 C         -0.6013855167       -1.7146485056        0.3363675564
 C          0.3461249052       -0.6903976927        0.9134889450
 C          0.7049360422       -0.7238101794        2.2556767687
 C          1.6029920156        0.1957960780        2.7702245137
 C          2.1616594905        1.1651983092        1.9571210174
 C          1.8031076728        1.2098759512        0.6160473525
 C          0.9083980525        0.2842659819        0.1011375320
 H          0.6328128227        0.3271056082       -0.9421006143
 N          2.3831015012        2.1826751907       -0.2259814819
 S          4.0569578039        2.1210653466       -0.3210106783
 O          4.6207398234        2.7574775314        0.8431261118
 O          4.4014693189        2.7114907932       -1.5948298200
 C          4.4319267657        0.3773915738       -0.3039598965
 C          4.9567565788       -0.2030697411        0.8325287187
 C          5.1613593760       -1.5733720686        0.8500889295
 C          4.8346933673       -2.3350490353       -0.2607844855
 C          4.3104185823       -1.7361224594       -1.3959984529
 C          4.1018267015       -0.3671522728       -1.4188604938
 H          3.6967848716        0.1314460166       -2.2853182736
 H          4.0580260695       -2.3286483232       -2.2609692858
 H          4.9899205107       -3.4023409199       -0.2428982065
 H          5.5694067582       -2.0426038659        1.7305903611
 H          5.1960900878        0.4262189555        1.6737818203
 H          1.9853758259        2.1772464540       -1.1549817285
 H          2.8688526166        1.8858879227        2.3350180710
 H          1.8716322670        0.1568159529        3.8147254182
 H          0.2668106256       -1.4723396183        2.8994449324
 H         -0.9341287385       -2.3614482320        1.1590833362
 C          0.1178126519       -2.5721134563       -0.6879779629
 C          1.0833111597       -3.6133255855       -0.2107074092
 C         -0.2296809983       -4.0243415517       -0.8051833304
 H         -0.2375690153       -4.4734647746       -1.7869941163
 H         -0.9920684879       -4.4106552050       -0.1444093968
 H          1.9824386017       -3.7798197666       -0.7826386315
 H          1.2132200211       -3.7219483110        0.8550880865
 H          0.3561553564       -2.0427069724       -1.6010118272
