  62
        -98.94763398
 C          0.7778971918        1.2636878730        0.0449837796
 C          1.4960048325        0.6415574679        1.0928726634
 C          2.3997573459       -0.4448532940        0.6933939127
 C          2.4563776940       -0.8105606233       -0.6005676994
 C          3.4192509064       -1.8132527536       -1.1657747248
 C          4.7208185583       -1.1320091277       -1.6146239939
 C          5.3298735780       -0.1990895621       -0.5678257665
 H          6.2573592915        0.1974003079       -0.9866756883
 H          4.6600781961        0.6497741008       -0.4119293433
 C          5.6243573500       -0.8651609379        0.7835040601
 H          5.6423005115       -1.9493130344        0.6669788696
 H          6.6181262562       -0.5586825604        1.1167804100
 C          4.6464194374       -0.4919540715        1.8990675429
 H          4.5597303748        0.5957564721        1.9627494850
 H          5.0609321072       -0.8424093067        2.8482010871
 C          3.2357622150       -1.0803075649        1.7683902367
 H          3.3038714632       -2.1599755601        1.6213771103
 H          2.7089983906       -0.8934609430        2.7090787309
 H          5.4432882589       -1.9075057106       -1.8753441707
 H          4.5121480537       -0.5458019498       -2.5123941187
 H          3.6364019783       -2.5716903498       -0.4167797235
 H          2.9556940349       -2.2851455853       -2.0323273942
 O          1.6798571667       -0.2519949280       -1.5627767593
 C          0.8387657756        0.8116085557       -1.2732199288
 O          0.2131002861        1.2549459658       -2.2540852929
 H         -1.5236405151        0.2410986965        0.5756414342
 C         -2.1000983511        1.0296537456        0.1141823817
 C         -1.5093332087        2.2699442374       -0.0908691765
 C         -2.2684161430        3.2806651948       -0.6673510440
 C         -3.5816098867        3.0460022881       -1.0356160124
 C         -4.1645594183        1.8096032977       -0.8331655663
 C         -3.4139785054        0.7911125918       -0.2541775141
 N         -3.9680504960       -0.4790894752       -0.0739449163
 S         -3.3180454475       -1.6353747520        0.9231573982
 O         -4.3356087396       -2.6646027102        0.9701714102
 O         -2.9187622973       -1.0943772096        2.2016795556
 C         -1.9109941475       -2.2701217945        0.0385169620
 C         -2.0376975727       -2.5245410414       -1.3123121895
 C         -0.9731381562       -3.0974886492       -1.9882382674
 C          0.1885530397       -3.4169675892       -1.3031897334
 C          0.3032371240       -3.1484216422        0.0513462883
 C         -0.7544689834       -2.5661950613        0.7306404872
 H         -0.6998233993       -2.3298724648        1.7822315702
 H          1.2080503797       -3.3912137439        0.5842803007
 H          1.0096575940       -3.8797480935       -1.8271522445
 H         -1.0533273571       -3.2962111580       -3.0448607029
 H         -2.9583928546       -2.2726985404       -1.8118776504
 H         -4.9571315106       -0.5756061727       -0.2402495690
 H         -5.1877714881        1.6265107166       -1.1226816569
 H         -4.1599211646        3.8386639479       -1.4854576838
 H         -1.8321302715        4.2522424612       -0.8309388313
 C         -0.0838534650        2.4713295202        0.3580999097
 H         -0.0848649094        2.5553703746        1.4561505485
 C          0.5572365135        3.7161234872       -0.2243780616
 C          0.4264270220        5.0389689528        0.4677672585
 C          1.7383997227        4.3153885042        0.4763920092
 H          2.5499307740        4.7058693453       -0.1193145275
 H          2.0581539200        3.8450351573        1.3950714260
 H          0.3396055754        5.9306014911       -0.1348549848
 H         -0.1395007862        5.0691910563        1.3867001502
 H          0.5733353207        3.7029277257       -1.3087913726
 O          1.4008810663        0.9908814823        2.3017164625
