  62
        -98.94394625
 C          2.1206303308        1.2535906386       -0.1586519640
 C          2.5342529829        0.1691461298       -0.9691507385
 C          3.9379897117       -0.2423146483       -0.8174746177
 C          4.7336060559        0.4228941333        0.0395386895
 C          6.1639916668        0.0741871750        0.3300604924
 C          6.2685891793       -0.8969189048        1.5144079615
 C          5.3339988477       -2.1022704305        1.4099445234
 H          5.5167403804       -2.7320177388        2.2834013991
 H          4.2985897849       -1.7592211531        1.4730634019
 C          5.5129652238       -2.9356497262        0.1332758941
 H          5.5168161142       -3.9936855673        0.4037746885
 H          6.4793110468       -2.7143813775       -0.3214479806
 C          4.4081017504       -2.7470312772       -0.9080722451
 H          3.4311829637       -2.8769411209       -0.4347734059
 H          4.5130707091       -3.5331928103       -1.6606705548
 C          4.4101007207       -1.4028595181       -1.6471096478
 H          5.4041010866       -1.2082750090       -2.0550238622
 H          3.7053979265       -1.4818569122       -2.4801833721
 H          7.3017824723       -1.2410167147        1.5886191902
 H          6.0246692491       -0.3536138616        2.4302142768
 H          6.6124444839       -0.3684900175       -0.5571259599
 H          6.6988247040        0.9928652054        0.5768891633
 O          4.3044734347        1.4723329280        0.7859352877
 C          2.9894385002        1.9006139284        0.7213322426
 O          2.7198524086        2.8527983265        1.4806813578
 O          1.7783368914       -0.4251805822       -1.7815970721
 C          0.6828592796        1.7441178499       -0.2059481989
 C         -0.2255645965        0.6262058328        0.2436883617
 C         -0.1416565901        0.1937794679        1.5649069892
 C         -0.9312422825       -0.8434965158        2.0225207811
 C         -1.8212648885       -1.4753607524        1.1710276558
 C         -1.9131256767       -1.0510638664       -0.1470436020
 C         -1.1277186910        0.0013580266       -0.6015720229
 H         -1.2069175050        0.3124827345       -1.6309464765
 N         -2.8205011510       -1.6862167223       -1.0147371240
 S         -4.4102274742       -1.8111121927       -0.5056157170
 O         -4.5268669212       -2.8673796591        0.4678539674
 O         -5.1872625451       -1.9709720702       -1.7139310588
 C         -4.7503722027       -0.2358023766        0.2580738502
 C         -4.8680470386        0.8695094713       -0.5614210113
 C         -5.0586833514        2.1144356673        0.0148863912
 C         -5.1192296271        2.2331696379        1.3951937009
 C         -5.0015015657        1.1137290476        2.2039922879
 C         -4.8129564166       -0.1347597527        1.6327262462
 H         -4.7193304117       -1.0296255868        2.2254630430
 H         -5.0510318273        1.2093351496        3.2767000216
 H         -5.2608695056        3.2044816500        1.8424014449
 H         -5.1536522282        2.9867729667       -0.6116628921
 H         -4.8224309879        0.7374683114       -1.6304974314
 H         -2.7721321395       -1.3518303907       -1.9659934904
 H         -2.4386966005       -2.2935459892        1.5047364441
 H         -0.8513874060       -1.1680948645        3.0489948661
 H          0.5609121873        0.6824785761        2.2265997411
 H          0.6167854999        2.5530769516        0.5345314890
 C          0.3455595221        2.3054199511       -1.5707704069
 C         -0.8247377350        3.2290571108       -1.7230324805
 C          0.5713929899        3.7627066157       -1.8328799026
 H          0.9366465424        4.0602002545       -2.8044751090
 H          0.9591827072        4.3601166385       -1.0206744358
 H         -1.4199937295        3.1660785830       -2.6213563156
 H         -1.3891255115        3.4662390903       -0.8340210466
 H          0.5646936756        1.6166944721       -2.3781686290
