  62
        -98.93798935
 C         -2.2198338445       -0.9730742644        0.3716680587
 C         -2.5196159604       -0.1345296673       -0.7258163859
 C         -3.4379918281        0.9937419197       -0.4673564725
 C         -3.8966943378        1.1835302008        0.7838298284
 C         -4.8659586786        2.2277975106        1.2696832400
 C         -6.3204678390        1.9055734682        0.8872963780
 C         -6.5145466078        1.3973435998       -0.5391986128
 H         -7.5587535547        1.0906899006       -0.6425524622
 H         -5.9000762223        0.5077240978       -0.6894363104
 C         -6.2157398528        2.4130726083       -1.6392575404
 H         -6.8740797983        3.2761617507       -1.5172423910
 H         -6.4617560956        1.9400644685       -2.5933417105
 C         -4.7719455935        2.9130661384       -1.7145223532
 H         -4.5694914436        3.6399333998       -0.9324966396
 H         -4.6604511306        3.4420170567       -2.6655828422
 C         -3.7129216778        1.8146861156       -1.7042076818
 H         -2.7491097578        2.2570421344       -1.9844374559
 H         -3.9383782085        1.0928858465       -2.4972829085
 H         -6.9247420598        2.8006709125        1.0434785463
 H         -6.6828735515        1.1308616290        1.5674311396
 H         -4.5743694713        3.2069740566        0.9014928891
 H         -4.7889796284        2.2458273471        2.3591480552
 O         -3.5446160729        0.3700573514        1.8220545977
 C         -2.7113153019       -0.7174558611        1.6498682513
 O         -2.4766651344       -1.3626582652        2.6935980759
 O         -2.0510049151       -0.3159091946       -1.8796547294
 C         -1.3095424031       -2.1720022357        0.1845067943
 C          0.0521438880       -1.7361633651       -0.3017257186
 C          0.7584327260       -2.4101415549       -1.2892841308
 C          2.0181863807       -1.9797693246       -1.6691724231
 C          2.6014022853       -0.8762477649       -1.0748649577
 C          1.9085290104       -0.2004603492       -0.0789011126
 C          0.6496471018       -0.6362448265        0.3019289437
 H          0.1149459567       -0.1107729207        1.0853161473
 N          2.5004978718        0.9247158421        0.5329611073
 S          3.9333180524        0.6413298255        1.3719507713
 O          3.9766754397       -0.7056794496        1.8942361088
 O          4.0250699961        1.7105970540        2.3423654461
 C          5.2030822176        0.8582978865        0.1433753838
 C          5.3254807911        2.0960354765       -0.4573265254
 C          6.3128200216        2.2809690289       -1.4119313343
 C          7.1573646250        1.2323302512       -1.7453956962
 C          7.0233816281       -0.0031956072       -1.1305386357
 C          6.0371120024       -0.1954200024       -0.1755053406
 H          5.8914973945       -1.1386315622        0.3261291328
 H          7.6811096303       -0.8168359197       -1.3907881445
 H          7.9249944640        1.3793801109       -2.4886393907
 H          6.4204872979        3.2403076519       -1.8919363017
 H          4.6526239641        2.8847759802       -0.1646219404
 H          1.8609342433        1.4308233345        1.1294780968
 H          3.5780419813       -0.5325857360       -1.3741838704
 H          2.5518480751       -2.5104955088       -2.4425960006
 H          0.3211529355       -3.2731063469       -1.7637941992
 H         -1.1801666558       -2.6122192370        1.1851707010
 C         -1.9736611187       -3.1941830673       -0.7151445799
 C         -1.6989277033       -4.6558450638       -0.5335661362
 C         -3.0268832637       -4.0877709909       -0.1348447151
 H         -3.8926791157       -4.3233839537       -0.7352319741
 H         -3.2433218219       -3.9781648130        0.9183325820
 H         -1.6562512740       -5.2856814002       -1.4093273676
 H         -1.0158206942       -4.9430432539        0.2516735635
 H         -2.1317710634       -2.8206814096       -1.7201985938
