  62
        -98.93901108
 C          0.7192578475        1.6927758645        0.5836059335
 C          1.6266765026        1.5328017821       -0.4910960248
 C          2.8075989872        0.6989552270       -0.2179089286
 C          2.9639611549        0.1371294666        0.9932859038
 C          4.1522638553       -0.6519082451        1.4806572026
 C          4.4458560123       -1.9893866933        0.7750510499
 C          5.4287000166       -1.8900298941       -0.3974109989
 H          6.0565178761       -1.0091219262       -0.2586639703
 H          6.0943837285       -2.7552310187       -0.3719982963
 C          4.7935641320       -1.8540100127       -1.7904736612
 H          5.5650304711       -1.5497419504       -2.5011087195
 H          4.4760833485       -2.8625516473       -2.0643032234
 C          3.5846558537       -0.9310018483       -1.9467708769
 H          2.7065723849       -1.3839728393       -1.4811995296
 H          3.3585413252       -0.8426598431       -3.0110378698
 C          3.7726819917        0.4746911184       -1.3452736302
 H          4.7976529116        0.6154559831       -1.0048986621
 H          3.5531636941        1.2353644712       -2.0970538189
 H          4.8789914225       -2.6509331828        1.5272137075
 H          3.5119982174       -2.4398297318        0.4447449660
 H          5.0367583838       -0.0129471538        1.4207262253
 H          3.9564795350       -0.8441311464        2.5380489034
 O          2.0396150311        0.2780795748        1.9854730933
 C          0.9035656330        1.0479780430        1.8073576167
 O          0.1495432492        1.0842634838        2.8018995123
 H         -2.1557574644        0.5446040266        0.8685903357
 C         -2.2326958380        0.8973650004       -0.1493977544
 C         -1.4595182050        1.9784779544       -0.5570855347
 C         -1.5857781673        2.4372105883       -1.8618325744
 C         -2.4617769270        1.8181348426       -2.7361547254
 C         -3.2274106587        0.7411818601       -2.3296483669
 C         -3.1160096227        0.2802686048       -1.0215922019
 N         -3.9145246143       -0.7823907334       -0.5790823829
 S         -3.4464038113       -1.8105322191        0.6425339617
 O         -4.3446626578       -2.9377472862        0.5081704122
 O         -3.4749058034       -1.1310497794        1.9122822736
 C         -1.7918188769       -2.3409024731        0.2426796844
 C         -1.6166956701       -3.0922594966       -0.9036128200
 C         -0.3501997387       -3.5553312144       -1.2168790833
 C          0.7150613629       -3.2682402660       -0.3767255578
 C          0.5238441417       -2.5118550723        0.7684219339
 C         -0.7403575012       -2.0372600577        1.0813198487
 H         -0.9167147144       -1.4396214974        1.9628081172
 H          1.3463347303       -2.2829619595        1.4278591835
 H          1.6978030805       -3.6463470105       -0.6138298448
 H         -0.1959081726       -4.1429803333       -2.1073782540
 H         -2.4723633921       -3.3190101062       -1.5183394481
 H         -4.4521236849       -1.2484400428       -1.2939886286
 H         -3.9139945284        0.2638119982       -3.0117099035
 H         -2.5482166555        2.1795121698       -3.7495422611
 H         -0.9870886264        3.2668948411       -2.1972891082
 C         -0.5064458848        2.5817554456        0.4456877510
 H         -1.0009050696        2.5628803696        1.4270963090
 C         -0.1119492783        4.0097740608        0.1287553483
 C         -1.1025785515        5.1119568199        0.3475551996
 C          0.0839250081        4.9792169632        1.2534077710
 H          0.8781946160        5.7064313908        1.1746284139
 H         -0.0766307930        4.6171187651        2.2588566433
 H         -2.0714235310        4.8395384802        0.7387229445
 H         -1.1251198971        5.9335890244       -0.3517685718
 H          0.5619202782        4.0905194590       -0.7149097591
 O          1.4848384789        2.0759893308       -1.6163002875
