  62
        -98.94015278
 C         -1.7424871127       -1.2190692861       -0.2458760743
 C         -3.0802430345       -1.3713536160        0.1865444381
 C         -4.0329969279       -0.3367253050       -0.2520719035
 C         -3.5931032335        0.6670434558       -1.0308652074
 C         -4.3794784004        1.8437215506       -1.5387829072
 C         -4.2270156852        3.0467412527       -0.5924262804
 C         -5.2269072338        3.0874062588        0.5624809444
 H         -4.9278747243        3.9046517724        1.2227971541
 H         -6.2174175808        3.3286566591        0.1711305394
 C         -5.3271920479        1.8012960802        1.3870750944
 H         -4.3276262042        1.4035848137        1.5716590416
 H         -5.7564877479        2.0585551377        2.3573577064
 C         -6.2036963948        0.7267160254        0.7263365932
 H         -6.7633983825        1.1780564740       -0.0927114966
 H         -6.9433197530        0.3708260606        1.4465726907
 C         -5.4518583559       -0.5122520900        0.2162509365
 H         -5.3883822364       -1.2548803268        1.0178725715
 H         -6.0309785859       -0.9742524012       -0.5902807901
 H         -3.2082144808        3.0341745874       -0.1969010426
 H         -4.3418857997        3.9651504780       -1.1716237940
 H         -3.9529115889        2.1074148845       -2.5088376688
 H         -5.4238862061        1.5800717468       -1.6758033879
 O         -2.2958247737        0.7723638530       -1.4298055496
 C         -1.3401859962       -0.1529693077       -1.0481419326
 O         -0.1969060762        0.0834276480       -1.4809772392
 O         -3.4611752900       -2.3246898254        0.9184061819
 C         -0.7081294490       -2.2436862229        0.1858455328
 C          0.3561014131       -1.5662232638        1.0131441682
 C         -0.0277656893       -0.9305127220        2.1927009025
 C          0.9013689730       -0.2891855647        2.9873368733
 C          2.2351738387       -0.2591644229        2.6168344818
 C          2.6292714678       -0.8895392653        1.4439355916
 C          1.6940559070       -1.5464624499        0.6534026383
 H          2.0311846335       -2.0190172316       -0.2533681463
 N          3.9825988867       -0.8953107518        1.0532023463
 S          4.4098984453       -0.2557892104       -0.4356613711
 O          3.7785398062       -1.0016003256       -1.4914809785
 O          5.8573589685       -0.2579334106       -0.4290319849
 C          3.8222631386        1.4275663256       -0.3770959996
 C          2.4930953163        1.6966406745       -0.6334043030
 C          2.0446666741        3.0028267202       -0.5038203931
 C          2.9202659372        4.0072997978       -0.1229074638
 C          4.2530560860        3.7180600240        0.1297388753
 C          4.7087114200        2.4160014965        0.0073009128
 H          5.7363872835        2.1450396205        0.1886415633
 H          4.9341128697        4.5007849818        0.4228027730
 H          2.5613941098        5.0198383215       -0.0246314852
 H          1.0067190921        3.2176986183       -0.7043623402
 H          1.8231523074        0.9063162826       -0.9345969830
 H          4.6058558448       -0.5250765164        1.7578443274
 H          2.9651237777        0.2436800313        3.2331317364
 H          0.5872006181        0.1953005826        3.8993646681
 H         -1.0712171337       -0.9511145786        2.4766604015
 H         -1.2492339786       -2.9465322564        0.8363419360
 C         -0.1681833872       -3.0048923120       -1.0053013734
 C          0.4120304788       -4.3731259345       -0.8137860699
 C         -0.9114352078       -4.2089351728       -1.4972925141
 H         -0.9686810154       -4.3799324896       -2.5618733012
 H         -1.8039990718       -4.4954186134       -0.9602268626
 H          1.2679491415       -4.6557497450       -1.4080887046
 H          0.4190873275       -4.7764536716        0.1876107202
 H          0.2853303343       -2.3613068131       -1.7512142434
