  62
        -98.93467332
 C         -1.9945624804        0.2891150770       -0.6961841196
 C         -2.6665848301        0.3808793987        0.5490655728
 C         -3.8629375255       -0.4641838269        0.6888446087
 C         -4.2278890097       -1.2915062543       -0.3053509569
 C         -5.4066819456       -2.2264625944       -0.2973185939
 C         -6.7333488250       -1.5625128415       -0.6908680249
 C         -7.3275053187       -0.6226231748        0.3590353449
 H         -8.3512957104       -0.4034154873        0.0491962176
 H         -7.3816043240       -1.1391436043        1.3178875457
 C         -6.5683146546        0.7010511995        0.5265856468
 H         -5.9214581287        0.8616056625       -0.3389353893
 H         -7.2810837844        1.5283959152        0.5511835369
 C         -5.7245040956        0.7920084332        1.7980800117
 H         -6.3772305854        0.7674397316        2.6734884523
 H         -5.2015926807        1.7515861040        1.7940634959
 C         -4.6753169249       -0.3183051410        1.9401341297
 H         -3.9927580412       -0.0450988983        2.7485159089
 H         -5.1574860369       -1.2621853445        2.1937416858
 H         -7.4533414121       -2.3619271795       -0.8809344550
 H         -6.5872851114       -1.0180674680       -1.6267330064
 H         -5.5050926801       -2.6835549380        0.6878102265
 H         -5.1853669368       -3.0116080801       -1.0237181388
 O         -3.5240544732       -1.3902531847       -1.4651118319
 C         -2.4090216115       -0.6026751075       -1.6892080953
 O         -1.8714158769       -0.7906583982       -2.8015841945
 O         -2.3079694087        1.1136534631        1.5023044843
 C         -0.7476012001        1.1064011782       -1.0208735495
 C          0.3533840889        0.7179448478       -0.0644675170
 C          0.6158854056        1.3141233481        1.1630766756
 C          1.6196128397        0.8257219870        1.9833192737
 C          2.3834031513       -0.2637508220        1.6097923485
 C          2.1308225932       -0.8717518049        0.3866533235
 C          1.1326750062       -0.3742683256       -0.4370711699
 H          0.9340141797       -0.8614948391       -1.3836158500
 N          2.8987761140       -1.9787297312       -0.0108624933
 S          4.5530967568       -1.9154971589        0.2276029995
 O          5.1157689039       -2.7764557878       -0.7890726101
 O          4.8613627213       -2.2695098426        1.5909809538
 C          5.0042038495       -0.2145977963       -0.0697985676
 C          5.5989965606        0.5255365770        0.9314389061
 C          5.9114610049        1.8535574713        0.6881055864
 C          5.6203983387        2.4164703684       -0.5445568594
 C          5.0255671041        1.6586761212       -1.5419845158
 C          4.7141014215        0.3298543652       -1.3053359082
 H          4.2561576359       -0.2866786765       -2.0623040054
 H          4.7995639267        2.0982074933       -2.5002229749
 H          5.8582736151        3.4517308779       -0.7312145938
 H          6.3759578961        2.4444296763        1.4609529442
 H          5.8034923667        0.0492318610        1.8765034876
 H          2.6666281154       -2.3363382443       -0.9254021180
 H          3.1536417219       -0.6634281592        2.2491777683
 H          1.8018214207        1.2997032070        2.9357391807
 H          0.0152686935        2.1357831678        1.5078478611
 H         -0.4372119626        0.7327257309       -2.0086056817
 C         -1.0659103216        2.5786652657       -1.2488321207
 C         -1.4591875822        3.5772314177       -0.2038135522
 C         -0.1326423953        3.6962843851       -0.8908100926
 H          0.0015972268        4.4952918608       -1.6047340171
 H          0.7571937427        3.4486432742       -0.3339090565
 H         -2.2346297290        4.2836409712       -0.4663963821
 H         -1.5104949673        3.2566776823        0.8227672153
 H         -1.5905939334        2.6861828195       -2.1958996826
