  62
        -98.94156899
 C         -1.9870850598       -1.5125471799        0.0167191595
 C         -2.1897496895       -0.5358965601       -0.9895459707
 C         -3.5194077995        0.0966112099       -1.0122411612
 C         -4.4438232297       -0.2602943799       -0.1036234614
 C         -5.8098427397        0.3483743602        0.0201373682
 C         -5.8031481900        1.5376314304        0.9907614879
 C         -4.6875305699        2.5480045003        0.7228775780
 H         -4.8013615600        3.3578632104        1.4468504978
 H         -3.7225391999        2.0753615403        0.9213564784
 C         -4.6851332695        3.1293236200       -0.6979714421
 H         -4.5331300795        4.2089360300       -0.6339541823
 H         -5.6563969094        2.9665637600       -1.1664882723
 C         -3.5853108593        2.5780625198       -1.6072007717
 H         -3.5367564990        3.2064622296       -2.5006009918
 H         -2.6200977994        2.6568275599       -1.1001796115
 C         -3.7698417492        1.1290760697       -2.0757871515
 H         -4.7662058491        1.0062999197       -2.5048770417
 H         -3.0314514990        0.9378700295       -2.8599982512
 H         -6.7713497999        2.0379563604        0.9303988276
 H         -5.6809802502        1.1551165706        2.0067863380
 H         -6.4924649699       -0.4141013997        0.3990788081
 H         -6.1496345495        0.6699087000       -0.9624954220
 O         -4.2144179400       -1.1989507797        0.8491856989
 C         -2.9909939101       -1.8399394997        0.9339844493
 O         -2.9191315903       -2.6801730795        1.8529443795
 O         -1.3214900093       -0.1888037303       -1.8319057106
 C         -0.6869606899       -2.2849685499        0.1806666500
 C          0.3225587799       -1.5045895498        0.9819198601
 C          0.9660954196       -2.0765986896        2.0726669804
 C          1.9052952695       -1.3588465395        2.7935573405
 C          2.2234112196       -0.0598053096        2.4403061504
 C          1.5867307199        0.5202371602        1.3502793201
 C          0.6450436901       -0.2005330899        0.6303642100
 H          0.1580251503        0.2528326400       -0.2204212803
 N          1.9082573000        1.8403351802        0.9722447599
 S          3.5146407002        2.1478774800        0.6039100803
 O          4.2895944198        2.1192450503        1.8185906505
 O          3.5122371504        3.3960470899       -0.1235816800
 C          3.9959823104        0.8037924398       -0.4631180494
 C          4.5610953402       -0.3312919801        0.0830560510
 C          4.8534241704       -1.3991143903       -0.7503894187
 C          4.5794862108       -1.3136690605       -2.1065517388
 C          4.0172534009       -0.1641136706       -2.6403268092
 C          3.7145442307        0.9036796595       -1.8112488794
 H          3.2760714309        1.8144511395       -2.1869620597
 H          3.8050868712       -0.0991924508       -3.6952987192
 H          4.8031716409       -2.1482604507       -2.7515843186
 H          5.2896710403       -2.2946963502       -0.3386880984
 H          4.7659123299       -0.3558740299        1.1404688411
 H          1.3206039403        2.1856240900        0.2262119097
 H          2.9553830495        0.5126547805        2.9869019304
 H          2.3934607192       -1.8145932393        3.6414933907
 H          0.7159987195       -3.0867683295        2.3621906306
 H         -0.9592714200       -3.1742185998        0.7701592001
 C         -0.1270240895       -2.7822121802       -1.1470723397
 C          1.1111224007       -2.2400423904       -1.7885355595
 C          1.1287518404       -3.6031015302       -1.1697795992
 H          1.1692629206       -4.4682520604       -1.8136417591
 H          1.6601080502       -3.7180522001       -0.2371739891
 H          1.1169230609       -2.1538322206       -2.8640708095
 H          1.6452858005       -1.4472559703       -1.2893960295
 H         -0.9199728694       -3.0888789203       -1.8220855699
