  62
        -98.94946909
 C         -2.0441154632        0.4081887582        0.3164409685
 C         -1.3695651350        1.3225071353        1.1583870502
 C         -0.9791574406        2.5954189757        0.5418307322
 C         -1.2264504258        2.8052091870       -0.7641184404
 C         -0.8910468929        4.0501356978       -1.5401078052
 C          0.5603487999        4.0951726261       -2.0373470172
 C          1.6035326294        4.4047135858       -0.9630944951
 H          1.3009291789        5.2940446016       -0.4083237469
 H          2.5349665540        4.6422558679       -1.4809585959
 C          1.8656528826        3.2482777145        0.0114753635
 H          2.9431912820        3.1308258987        0.1542005054
 H          1.5052567990        2.3160661612       -0.4316248343
 C          1.2439159884        3.4350826880        1.3954858921
 H          1.6925612859        4.3056213465        1.8798030346
 H          1.4827903332        2.5574340242        1.9996520225
 C         -0.2799103432        3.6137660412        1.3936723393
 H         -0.5366794374        4.6183607726        1.0570957238
 H         -0.6389811790        3.4866900510        2.4183507719
 H          0.6192621466        4.8685528517       -2.8071234436
 H          0.7985501181        3.1366474564       -2.5061524446
 H         -1.0976837753        4.9321944271       -0.9326974512
 H         -1.5539584050        4.0615277423       -2.4080552657
 O         -1.8520355972        1.8893862185       -1.5486378478
 C         -2.2653430244        0.6699255948       -1.0360784119
 O         -2.8228909868       -0.0728355336       -1.8676416275
 O         -1.1074860980        1.0883603064        2.3700010331
 C         -2.4780641056       -0.9385735708        0.8713557161
 C         -1.8295424044       -2.0332237492        0.0599007824
 C         -2.5061739908       -3.1274097509       -0.4603329383
 C         -1.8405688275       -4.0354831155       -1.2669948478
 C         -0.5062960841       -3.8635134894       -1.5849078463
 C          0.1856626466       -2.7809041487       -1.0499525863
 C         -0.4719419079       -1.9060511620       -0.2043791562
 H          0.0613164516       -1.0653866180        0.2072001760
 N          1.5394821875       -2.5756332136       -1.3409667358
 S          2.2840109481       -1.0813639162       -1.2370709151
 O          1.3796441710        0.0157678590       -1.4862878536
 O          3.4131136482       -1.1927730029       -2.1371215537
 C          2.8946498867       -1.0604960455        0.4361373114
 C          2.3038794020       -0.2708928194        1.4003425113
 C          2.7945814638       -0.3103286436        2.6963120655
 C          3.8652165751       -1.1340936591        3.0052134974
 C          4.4538411790       -1.9185749414        2.0242433242
 C          3.9651263428       -1.8842574256        0.7289732278
 H          4.3982038648       -2.4689009530       -0.0654766790
 H          5.2885017643       -2.5564569753        2.2663653609
 H          4.2420300098       -1.1619926309        4.0154051955
 H          2.3275303520        0.2991071154        3.4541008378
 H          1.4706794479        0.3623473667        1.1370235997
 H          1.9175432471       -3.1468146307       -2.0809611344
 H         -0.0032810156       -4.5524113627       -2.2462193578
 H         -2.3775326608       -4.8783165614       -1.6755826689
 H         -3.5557803138       -3.2598707658       -0.2549314378
 H         -2.0844201757       -0.9779440123        1.8979576021
 C         -3.9881596458       -1.0327230286        0.9206734626
 C         -4.6593299244       -1.8957792263        1.9459778392
 C         -4.7169741393       -0.4036067932        2.0688191059
 H         -5.6531681412        0.0969969730        1.8723613907
 H         -4.1194746810        0.0729687758        2.8321082838
 H         -5.5607654404       -2.4204739709        1.6675930452
 H         -4.0278221360       -2.4361841598        2.6345578239
 H         -4.4398534646       -0.9546985900       -0.0621856755
