  62
        -98.94512649
 C         -2.4500270858       -1.2095130924       -0.0881879552
 C         -3.5092560824       -0.7889424210        0.7564215192
 C         -4.3664978004        0.2837934373        0.2379854865
 C         -4.1070553360        0.8020155139       -0.9762694824
 C         -4.8599734309        1.9395904288       -1.6016784350
 C         -4.2131801171        3.2887828250       -1.2581657393
 C         -3.9207021785        3.4727683587        0.2311048898
 H         -3.1510499969        2.7583673687        0.5336231308
 H         -3.4958533741        4.4710568041        0.3571548371
 C         -5.1458575677        3.3182925521        1.1432582071
 H         -5.1399774341        4.1280066693        1.8758499721
 H         -6.0592657760        3.4191614032        0.5560632368
 C         -5.1905550561        2.0066614147        1.9292754510
 H         -4.2380302124        1.8559537908        2.4434724818
 H         -5.9658984872        2.0955556313        2.6947343346
 C         -5.4997892183        0.7478755907        1.1091422896
 H         -5.6903968303       -0.0680212010        1.8122740464
 H         -6.4016161767        0.9077743647        0.5149856613
 H         -3.2697644901        3.3699448265       -1.8036398473
 H         -4.8744056697        4.0860929965       -1.6025243745
 H         -4.8474525459        1.8065253997       -2.6847773929
 H         -5.8911294692        1.9202311312       -1.2542885370
 O         -3.0870551721        0.3715148966       -1.7604215193
 C         -2.2258835628       -0.6313911551       -1.3376615909
 O         -1.3351937680       -0.9092235302       -2.1648477724
 O         -3.7281414063       -1.2918300813        1.8903002237
 C         -1.5215032997       -2.2961333851        0.4314634534
 C         -0.1917727583       -1.6582512417        0.7487668883
 C         -0.0037424121       -1.0482415318        1.9859798644
 C          1.1763319115       -0.3895183802        2.2760331655
 C          2.1884706014       -0.3132500698        1.3347801268
 C          2.0026924870       -0.9021932296        0.0918803203
 C          0.8277268485       -1.5868993000       -0.1879403817
 H          0.6913966217       -2.0272335240       -1.1630374066
 N          3.0168418116       -0.8080155763       -0.8790342974
 S          3.6332228721        0.7223395542       -1.2006924876
 O          2.6707389528        1.7610152308       -0.9129145658
 O          4.1275457561        0.6575559087       -2.5589932676
 C          5.0223577692        0.8523081615       -0.0920376370
 C          5.1140358255        1.9212569259        0.7776517293
 C          6.2080715478        2.0042305740        1.6251814173
 C          7.1864867635        1.0227476894        1.5871722520
 C          7.0813465516       -0.0428930948        0.7055651309
 C          5.9908036306       -0.1311803376       -0.1446897730
 H          5.8727034218       -0.9395821170       -0.8465951911
 H          7.8443132801       -0.8040990308        0.6786471989
 H          8.0359875366        1.0890104275        2.2484265283
 H          6.2913955151        2.8324843200        2.3104466021
 H          4.3258467968        2.6575215213        0.7755624319
 H          2.7776885478       -1.2726428208       -1.7439783726
 H          3.1063529244        0.2097984024        1.5480020119
 H          1.3095781431        0.0739371591        3.2417540039
 H         -0.8039093523       -1.0848451675        2.7120250455
 H         -1.9718076596       -2.6324444383        1.3749325365
 C         -1.4253141955       -3.4787821500       -0.5089722360
 C         -0.8307228100       -4.7604667869       -0.0091182087
 C         -2.3022721249       -4.6710237204       -0.2764803418
 H         -2.7043293469       -5.1882046186       -1.1347929843
 H         -2.9750056009       -4.6393731441        0.5679022147
 H         -0.2199532842       -5.3429825289       -0.6816702179
 H         -0.5030474768       -4.7873261436        1.0190106865
 H         -1.2380504807       -3.1993908660       -1.5383937197
