  62
        -98.94124730
 C         -2.3518121368       -1.1066080582       -0.4480316570
 C         -3.6790732998       -1.0498729093        0.0451665496
 C         -4.4970700995        0.0732693018       -0.4289459376
 C         -3.9551445833        0.9699438544       -1.2733345827
 C         -4.6531336908        2.1966418859       -1.7834899143
 C         -4.3972832195        3.4017794833       -0.8675714407
 C         -4.6376996075        3.1141714841        0.6145689406
 H         -3.8958089190        2.3909936779        0.9621791642
 H         -4.4565046166        4.0434071751        1.1593002371
 C         -6.0452189521        2.5954120601        0.9409463844
 H         -6.4174629182        3.1244379158        1.8207405974
 H         -6.7229907184        2.8203921955        0.1167360046
 C         -6.1121760430        1.1005088316        1.2585010047
 H         -7.0965576325        0.8868601720        1.6833068507
 H         -5.3671328482        0.8544499521        2.0194478741
 C         -5.9136575516        0.1561376781        0.0662360354
 H         -6.1752322888       -0.8535440521        0.3959340344
 H         -6.5888093137        0.4392094272       -0.7436822206
 H         -5.0404059456        4.2228212743       -1.1895835645
 H         -3.3577967632        3.7154777869       -0.9897004707
 H         -5.7211157438        1.9989432522       -1.8512630576
 H         -4.2695803403        2.4216984846       -2.7800027510
 O         -2.6786499494        0.8833900446       -1.7256302871
 C         -1.8407851672       -0.1463323896       -1.3212237301
 O         -0.6974554061       -0.0930154600       -1.8139056507
 O         -4.1566708282       -1.9002043839        0.8429556765
 C         -1.4535388800       -2.2341143212        0.0337472889
 C         -0.3586954648       -1.6290824726        0.8767340761
 C         -0.6667180621       -1.1890411994        2.1616624866
 C          0.2876907878       -0.5647698811        2.9415331648
 C          1.5687312375       -0.3619407980        2.4571509100
 C          1.8829315010       -0.7892846473        1.1748133813
 C          0.9245228733       -1.4270771315        0.3960987286
 H          1.1773591293       -1.7396450060       -0.6045376312
 N          3.1845714177       -0.5989439507        0.6696964722
 S          3.9036733831        0.9071368845        0.9339767696
 O          4.4095696420        0.9374575620        2.2843271550
 O          2.9935909919        1.9740073211        0.5801183084
 C          5.2637598665        0.8327998258       -0.2145760360
 C          5.0888704093        1.3209470816       -1.4956315976
 C          6.1406578901        1.2352132582       -2.3943122090
 C          7.3406875538        0.6625111014       -1.9999275745
 C          7.5003085312        0.1761361600       -0.7109330744
 C          6.4533986024        0.2600263479        0.1931631802
 H          6.5328893406       -0.0958351524        1.2069265700
 H          8.4354355432       -0.2664751518       -0.4080833742
 H          8.1567148762        0.5975615048       -2.7021977888
 H          6.0193495525        1.6143857701       -3.3963172462
 H          4.1407876959        1.7642359184       -1.7574240624
 H          3.2339061610       -0.8369195959       -0.3123911294
 H          2.3190278877        0.1372737045        3.0486152642
 H          0.0344642103       -0.2270334447        3.9355623652
 H         -1.6719019997       -1.3316545179        2.5344942329
 H         -2.0864259890       -2.8505667248        0.6865779424
 C         -0.9554614968       -3.0893426458       -1.1114556309
 C         -0.3668147762       -4.4365439053       -0.8202557187
 C         -1.7093163484       -4.3312461582       -1.4772563973
 H         -1.7953474904       -4.5913405426       -2.5216105136
 H         -2.5859624635       -4.5725853587       -0.8943853241
 H          0.4700314812       -4.7739070620       -1.4123624512
 H         -0.3300619335       -4.7486188449        0.2124432021
 H         -0.5317898238       -2.5116240496       -1.9241915809
