  62
        -98.94796061
 C          1.2576399499        0.7670448199        0.3921223998
 C          2.0983973398        0.5854990803       -0.7317680003
 C          3.0578274804       -0.5217001592       -0.6342227904
 C          3.0442085909       -1.3282315792        0.4423757197
 C          3.9394391615       -2.5160887688        0.6704438996
 C          5.3122959414       -2.1613570581        1.2584062394
 C          6.2784584009       -1.4784151677        0.2895203392
 H          7.2629017710       -1.4856140072        0.7615884891
 H          6.3510779911       -2.0688777276       -0.6243245007
 C          5.9081892602       -0.0299636278       -0.0586598107
 H          6.7987915399        0.5989695326        0.0065744891
 H          5.1931413901        0.3493421718        0.6748749393
 C          5.3240245299        0.1557274218       -1.4591066207
 H          5.0644203894        1.2097734217       -1.5851814807
 H          6.0779122599       -0.0977121178       -2.2076581608
 C          4.0648229203       -0.6771756288       -1.7335644305
 H          3.6052232700       -0.3138530090       -2.6561600004
 H          4.3275282208       -1.7268736687       -1.8647554205
 H          5.1629121212       -1.5252649981        2.1339033194
 H          5.7702408319       -3.0929862279        1.5987403094
 H          4.0710210116       -3.0597753087       -0.2657230604
 H          3.4173842419       -3.1661657590        1.3763134197
 O          2.1703415109       -1.1625733396        1.4711176898
 C          1.2651893704       -0.1141907501        1.4728215699
 O          0.5249183205       -0.0749899104        2.4782000399
 O          2.0528490293        1.3056127402       -1.7630781103
 C          0.2438683493        1.8955153394        0.4091238599
 C         -0.7864438807        1.6928209489       -0.6764239799
 C         -1.3195579413        2.7286541386       -1.4332263899
 C         -2.2904513313        2.4690100881       -2.3854416398
 C         -2.7713638207        1.1871306279       -2.5830413097
 C         -2.2482564701        0.1453527882       -1.8257466797
 C         -1.2581884901        0.4058081887       -0.8930177098
 H         -0.8385438097       -0.4165215811       -0.3343740799
 N         -2.7090838295       -1.1723044821       -1.9735892396
 S         -2.8565130289       -2.1330094721       -0.6104935896
 O         -1.5626174186       -2.6006208315       -0.1794999797
 O         -3.7969748784       -3.1616247926       -1.0032381094
 C         -3.6066853792       -1.0682570424        0.6094158205
 C         -4.9313444794       -0.7265277731        0.4099514507
 C         -5.5443665497        0.1432943766        1.2955101607
 C         -4.8232106398        0.6620534570        2.3606996606
 C         -3.4981153796        0.3047853477        2.5508896104
 C         -2.8787825993       -0.5690947821        1.6697491904
 H         -1.8463376592       -0.8536990516        1.8036073503
 H         -2.9291813197        0.7009580479        3.3771462804
 H         -5.2957482601        1.3454248468        3.0484702006
 H         -6.5772235399        0.4166296561        1.1522304308
 H         -5.4598154493       -1.1605732134       -0.4232340793
 H         -3.4959478595       -1.2811581325       -2.5964997395
 H         -3.5355311507        0.9901117775       -3.3189381996
 H         -2.6880664518        3.2804833479       -2.9755833197
 H         -0.9703663518        3.7369464488       -1.2828361900
 H         -0.2791145105        1.8161840192        1.3745730600
 C          0.9392885886        3.2393006398        0.3414478798
 C          0.3469977482        4.4322602895        1.0278244099
 C          1.5775536985        3.7826967701        1.5834891697
 H          2.5219276583        4.2984528306        1.4953555796
 H          1.4853299189        3.1944956801        2.4854228697
 H          0.4490677576        5.3997543295        0.5598726398
 H         -0.5812404417        4.2935173290        1.5611173400
 H          1.4610780485        3.3905615700       -0.5961367503
