  62
        -98.93792078
 C          1.6908055494        1.7026342810        0.2259293817
 C          1.6186462769        0.5746909993       -0.6226546383
 C          2.6690133517       -0.4499011634       -0.4489908689
 C          3.6203301031       -0.2635956729        0.4833796569
 C          4.7834318029       -1.1547400826        0.8388911697
 C          5.5842974155       -1.7384129592       -0.3357963957
 C          5.3937838824       -3.2458660895       -0.5117561064
 H          6.2616538144       -3.6486037310       -1.0387315178
 H          5.3689356624       -3.7107292310        0.4760057046
 C          4.1473978798       -3.6547942947       -1.2949118164
 H          4.2865949056       -3.4084078720       -2.3498387459
 H          4.0553780128       -4.7412201418       -1.2257163941
 C          2.8381178645       -3.0212510157       -0.8192891584
 H          2.8067902470       -2.9914483053        0.2693672110
 H          2.0206245415       -3.6667564873       -1.1486930354
 C          2.5884084952       -1.6185285451       -1.3946477782
 H          3.2674849896       -1.4356264256       -2.2327763988
 H          1.5789414375       -1.5670523284       -1.8154448147
 H          5.3294379768       -1.2144031398       -1.2558314027
 H          6.6421809367       -1.5531531181       -0.1427496139
 H          5.4345159989       -0.5350433850        1.4595099859
 H          4.4216454950       -1.9630096090        1.4788269772
 O          3.6342698247        0.8307508868        1.2969663749
 C          2.6861818505        1.8285528261        1.1972135412
 O          2.8326014835        2.7626227749        2.0097226332
 H         -1.3730709025        1.9598039434       -1.4714001754
 C         -1.5907791188        1.8432426574       -0.4221997697
 C         -0.6756296317        2.2680145465        0.5264656736
 C         -0.9767168138        2.0831929908        1.8732699339
 C         -2.1663526029        1.4926041488        2.2568956748
 C         -3.0685483790        1.0465995223        1.3057746842
 C         -2.7665594269        1.2114739467       -0.0390161531
 N         -3.6402972589        0.7055984906       -1.0163420392
 S         -4.2822734785       -0.8167271394       -0.7607454401
 O         -4.4803570973       -1.3755159166       -2.0808632387
 O         -5.4741018968       -0.7006972247        0.0451801621
 C         -3.0627152212       -1.7650632376        0.1400161838
 C         -3.5027547162       -2.5661108179        1.1755269495
 C         -2.5842748443       -3.3292591380        1.8776098727
 C         -1.2412858788       -3.2721173994        1.5395512789
 C         -0.8147906644       -2.4611194139        0.4999321489
 C         -1.7296722729       -1.7048156583       -0.2155124635
 H         -1.3946665361       -1.0663000119       -1.0181274188
 H          0.2299720616       -2.3999779233        0.2409576195
 H         -0.5217540965       -3.8588528619        2.0885694483
 H         -2.9167737982       -3.9597729116        2.6864694795
 H         -4.5540035130       -2.5675576892        1.4144354061
 H         -3.2836038643        0.7911950706       -1.9573110165
 H         -3.9941267409        0.5688436857        1.5849596315
 H         -2.3901007066        1.3652827147        3.3050356378
 H         -0.2567431696        2.3991250823        2.6155659389
 C          0.6703915447        2.8274583459        0.1394031735
 H          0.9692946618        3.5628732258        0.8975951452
 C          0.6936509612        3.4929565823       -1.2209924231
 C          0.0239245471        4.8211658499       -1.4008994762
 C          1.5194203361        4.7269675926       -1.4176803079
 H          2.0344888252        4.8573730263       -2.3577374614
 H          2.0666116276        5.1033633302       -0.5657010303
 H         -0.4892574401        5.0207857622       -2.3292702966
 H         -0.4468129645        5.2617989210       -0.5351208838
 H          0.6579609726        2.7908040181       -2.0448502588
 O          0.7269364645        0.4146285084       -1.4980804652
