  62
        -98.94462154
 C          2.6825259784        1.2709672807        0.1263288784
 C          2.5240872776        0.2872657008       -0.8803449651
 C          3.4441996360       -0.8551276647       -0.8044126933
 C          4.3915527407       -0.8944567719        0.1496379069
 C          5.4181041469       -1.9781642955        0.3371121944
 C          4.9138108117       -3.1798484172        1.1478281760
 C          3.9183212809       -4.0837507456        0.4194521220
 H          4.3309854135       -4.3735068171       -0.5473526641
 H          3.8146016371       -4.9926723162        1.0152399889
 C          2.5274967127       -3.4640823561        0.2214960743
 H          2.4052645004       -2.6125565321        0.8953259208
 H          1.7589194518       -4.1923693398        0.4903052054
 C          2.2322985071       -3.0074330622       -1.2074862174
 H          1.2367060080       -2.5537287615       -1.2210510513
 H          2.2130811470       -3.8742831429       -1.8722368424
 C          3.2340006877       -1.9866452479       -1.7643705198
 H          4.1805713153       -2.4759230820       -1.9931361428
 H          2.8214993337       -1.5704054422       -2.6867625072
 H          4.4621795026       -2.8128224599        2.0722642493
 H          5.7857209453       -3.7797528496        1.4181388471
 H          6.2527271849       -1.5252773785        0.8764260908
 H          5.7748920901       -2.3174569400       -0.6355851357
 O          4.5382775237        0.0925335907        1.0727102948
 C          3.6682075997        1.1685277669        1.1111668973
 O          3.8784650513        1.9634131957        2.0488233382
 O          1.6705364193        0.3495826315       -1.8044183173
 C          1.7382961016        2.4597519019        0.2236729221
 C          0.3761359637        1.9168383755        0.5804582242
 C          0.1027773985        1.5893486470        1.9058578525
 C         -1.0996657846        1.0040473613        2.2541787603
 C         -2.0485556141        0.7181087811        1.2872140781
 C         -1.7777282927        1.0256205402       -0.0384723778
 C         -0.5817433339        1.6424185320       -0.3822735469
 H         -0.3821145749        1.8663712413       -1.4179307992
 N         -2.7250428758        0.7177090286       -1.0310991735
 S         -3.3642029061       -0.8361204881       -1.0421868863
 O         -2.4564396238       -1.7981024763       -0.4616256531
 O         -3.7661420561       -1.0716353977       -2.4122029237
 C         -4.8260239431       -0.6889410059       -0.0341799614
 C         -5.0191721294       -1.5467745291        1.0307123820
 C         -6.1682860568       -1.4182097390        1.7955825894
 C         -7.0993875655       -0.4397670207        1.4830722391
 C         -6.8920245368        0.4122454353        0.4083862012
 C         -5.7462705760        0.2879281693       -0.3607906306
 H         -5.5488129998        0.9267609547       -1.2052043612
 H         -7.6183474837        1.1719464613        0.1684338179
 H         -7.9918782742       -0.3409029371        2.0805437041
 H         -6.3311236665       -2.0804528693        2.6307385189
 H         -4.2646692187       -2.2886560388        1.2396366483
 H         -2.4216817997        0.9750710698       -1.9599401135
 H         -2.9810996512        0.2451083980        1.5485628992
 H         -1.2990947942        0.7601182176        3.2866908761
 H          0.8565166217        1.7853674916        2.6563286706
 H          2.0991681613        3.0646632873        1.0657712396
 C          1.7578338296        3.3081300058       -1.0301359406
 C          1.1484453673        4.6767281158       -0.9962922712
 C          2.6364225095        4.5203016929       -1.0786142678
 H          3.1307832320        4.7599963473       -2.0081080441
 H          3.2250494844        4.7454656798       -0.2012983986
 H          0.6196206232        5.0285742694       -1.8688761171
 H          0.7247512110        5.0084970362       -0.0605312088
 H          1.6639393364        2.7315444400       -1.9418823125
