  62
        -98.94568573
 C         -0.7820110305       -1.7783324706        0.0821794485
 C         -1.9836567349       -1.6118471860        0.8147285144
 C         -2.9641201380       -0.6804038724        0.2474080564
 C         -2.6747041922       -0.0204502903       -0.8886102762
 C         -3.5983927594        0.9090710934       -1.6303645346
 C         -3.6269428373        2.3491969062       -1.1013514577
 C         -4.3194990180        2.5364099501        0.2485429928
 H         -4.4502544635        3.6104334285        0.3957079033
 H         -5.3135575119        2.0892876817        0.2137075727
 C         -3.5415931804        1.9676929527        1.4439442538
 H         -2.4982398670        1.7964601443        1.1649346017
 H         -3.5286047962        2.7002051692        2.2547854852
 C         -4.1190260845        0.6719480367        2.0139201381
 H         -5.1054413344        0.8676123030        2.4410785348
 H         -3.4634934903        0.3332419754        2.8207448854
 C         -4.2460895942       -0.4663759803        0.9935567059
 H         -4.4721759760       -1.3877169421        1.5364100695
 H         -5.0614641441       -0.2594592391        0.3001093987
 H         -2.6034914022        2.7225504554       -1.0316257982
 H         -4.1534733077        2.9565721457       -1.8414740070
 H         -3.2503276206        0.9286855461       -2.6653690832
 H         -4.6093363033        0.4996065910       -1.6140766887
 O         -1.4876531264       -0.1646213446       -1.5323946636
 C         -0.5025107456       -1.0225391622       -1.0573271349
 O          0.5404187616       -1.0159012050       -1.7356135137
 O         -2.2310111606       -2.2262010769        1.8877775708
 C          0.2459138067       -2.7518452651        0.6266509436
 C          1.6209603115       -2.1318310620        0.6273999148
 C          2.7586850402       -2.7730823513        0.1545597947
 C          3.9917574336       -2.1468013249        0.2115077381
 C          4.1152534427       -0.8680897647        0.7210922209
 C          2.9808670509       -0.2145830257        1.1894443367
 C          1.7538820835       -0.8537809212        1.1567547993
 H          0.8828606498       -0.3360012713        1.5322204258
 N          3.0582056727        1.0924245044        1.7039587550
 S          1.8992224300        2.2081142455        1.2653341425
 O          2.5032582306        3.4881112119        1.5790491543
 O          0.6519338518        1.9334752740        1.9357485539
 C          1.6822545590        2.0915909758       -0.5010512152
 C          2.7646702151        1.8513804293       -1.3223288052
 C          2.5692166523        1.8196525576       -2.6929918333
 C          1.3071328387        2.0424934806       -3.2186064865
 C          0.2327588750        2.2954211845       -2.3823391510
 C          0.4216420446        2.3165219541       -1.0109991402
 H         -0.3875599727        2.4878656401       -0.3171216095
 H         -0.7514739613        2.4602467883       -2.7911525383
 H          1.1567185252        2.0115132954       -4.2862310601
 H          3.4018321889        1.6151035381       -3.3466582035
 H          3.7400693964        1.6828216817       -0.8964568437
 H          3.9808504721        1.5025788384        1.6837036150
 H          5.0760175230       -0.3770373910        0.7567598834
 H          4.8672685026       -2.6582487010       -0.1582915878
 H          2.6820856945       -3.7587931752       -0.2731690413
 H         -0.0511332619       -2.8990103499        1.6797591272
 C          0.2032494005       -4.1253197572       -0.0298016859
 C         -1.0145113820       -4.6022467984       -0.7619512707
 C          0.2398755723       -4.2907488914       -1.5186934387
 H          0.8054779154       -5.1134221295       -1.9309951380
 H          0.2712881134       -3.3926803328       -2.1152390741
 H         -1.3064505528       -5.6355393299       -0.6471223242
 H         -1.8487078489       -3.9211267730       -0.8490549224
 H          0.7253090745       -4.8742591002        0.5576914466
