  62
        -98.94578647
 C         -2.1962834554       -1.1655581741        0.1974736236
 C         -1.8633650076       -0.2456876170       -0.8268113704
 C         -2.6302756155        1.0102689248       -0.8304174141
 C         -3.5753325531        1.2105759328        0.1062745394
 C         -4.4037181248        2.4554831694        0.2376035959
 C         -3.7388142310        3.4738679403        1.1740445463
 C         -2.2669107283        3.7352315635        0.8542599524
 H         -1.9083483197        4.4899984974        1.5577930995
 H         -1.6939637183        2.8243083368        1.0449052713
 C         -2.0045335293        4.2078745589       -0.5825926167
 H         -1.3030973432        5.0443846866       -0.5523221904
 H         -2.9303642967        4.5770585263       -1.0250765130
 C         -1.3911108556        3.1454829294       -1.4963902096
 H         -1.0490406199        3.6414561446       -2.4085061946
 H         -0.5122447269        2.7156097384       -1.0098703413
 C         -2.3250588495        2.0034239849       -1.9170289625
 H         -3.2477631398        2.4183379298       -2.3276684185
 H         -1.8243202365        1.4351343031       -2.7063490108
 H         -3.8063771068        3.0996836361        2.1984224951
 H         -4.2962230877        4.4105609993        1.1183350435
 H         -4.5494022601        2.8940593977       -0.7476673503
 H         -5.3757818103        2.1785349322        0.6492098247
 O         -3.8566199927        0.3080667074        1.0811308955
 C         -3.1746604141       -0.8970174421        1.1536317341
 O         -3.5218101391       -1.6286596600        2.1036834964
 H         -0.1787669048       -0.6340303370        1.6597323982
 C          0.5114984033       -1.2992611294        1.1544969738
 C          0.0081499936       -2.3316977529        0.3738037012
 C          0.9094682489       -3.1759199048       -0.2631712257
 C          2.2734035750       -2.9867761151       -0.1202849331
 C          2.7696955802       -1.9508969882        0.6488639739
 C          1.8769326906       -1.0966730374        1.2840422354
 N          2.3703098801       -0.0195963573        2.0391866797
 S          3.6268777149        0.8743383795        1.3849536166
 O          4.8836209040        0.2578656549        1.7333936616
 O          3.4327814360        2.2186433461        1.8840589737
 C          3.4102984788        0.8226091080       -0.3858419702
 C          2.1694369740        1.1194030370       -0.9121806545
 C          1.9870468710        1.0576770028       -2.2832345907
 C          3.0504109580        0.7133112140       -3.1033389271
 C          4.2950471996        0.4307822734       -2.5622804466
 C          4.4784203128        0.4792616177       -1.1896945589
 H          5.4236724335        0.2503358936       -0.7247174280
 H          5.1195925251        0.1640772986       -3.2036408435
 H          2.9034610642        0.6614590125       -4.1705565273
 H          1.0096010076        1.2507172105       -2.6944801153
 H          1.3542316092        1.3776920549       -0.2544263428
 H          1.6529764214        0.5824290770        2.4153647868
 H          3.8286814379       -1.7889458008        0.7703657073
 H          2.9603041029       -3.6527961527       -0.6192050082
 H          0.5428994072       -3.9839855118       -0.8742645932
 C         -1.4880282106       -2.5056032709        0.2702604498
 H         -1.8372515316       -2.9833682587        1.1980699828
 C         -1.9063007620       -3.3664745319       -0.9056810587
 C         -2.0218120134       -4.8530689139       -0.7582900247
 C         -3.2572267236       -4.0137187135       -0.8782127671
 H         -3.8280207535       -4.0583993445       -1.7935748437
 H         -3.8612613534       -3.8592823743        0.0045484812
 H         -1.7470596125       -5.4777265462       -1.5949132713
 H         -1.7945607952       -5.2809089057        0.2065601541
 H         -1.5611961379       -2.9691391757       -1.8532226625
 O         -0.9774404299       -0.4581580462       -1.6925058215
