  62
        -98.94642187
 C         -1.5625427503       -1.1001725905        0.0334881005
 C         -2.6208518303       -0.8260645708        0.9367163406
 C         -3.3362918505        0.4394821591        0.7301024507
 C         -2.9301824407        1.2713744193       -0.2461105492
 C         -3.5870906209        2.5763302492       -0.5887785890
 C         -4.6669498110        2.3878135392       -1.6635183690
 C         -5.6435579508        1.2502900390       -1.3649427590
 H         -5.1057294306        0.2999517291       -1.3976988692
 H         -6.3774712408        1.2311891289       -2.1735946490
 C         -6.3702425207        1.3741660687       -0.0184187190
 H         -7.4282900707        1.1502674985       -0.1701382089
 H         -6.3060313509        2.4006116987        0.3444973811
 C         -5.8646912805        0.4204602787        1.0658626709
 H         -5.8409792403       -0.5995589513        0.6738398608
 H         -6.5803937404        0.4359442984        1.8921480009
 C         -4.4841723005        0.7456426288        1.6502658308
 H         -4.3388744803        0.1138992088        2.5313723808
 H         -4.4566030507        1.7895372088        1.9688905010
 H         -4.1754680110        2.1751176993       -2.6157834690
 H         -5.2176604611        3.3243906591       -1.7679485988
 H         -2.8258654311        3.2590474494       -0.9699829590
 H         -4.0260943510        3.0034505090        0.3105989911
 O         -1.8911533707        0.9904351296       -1.0714218693
 C         -1.1925571405       -0.2050064603       -0.9700862195
 O         -0.2899113905       -0.3325924401       -1.8188375295
 O         -2.9498636601       -1.6044190909        1.8705339805
 C         -0.7727954201       -2.3853171104        0.2282670303
 C          0.6056359999       -1.9841711102        0.6892997702
 C          0.8085967799       -1.6511958903        2.0261167803
 C          2.0298453199       -1.1681109202        2.4572519302
 C          3.0670024898       -0.9797852099        1.5596173502
 C          2.8682048898       -1.2981282198        0.2232106902
 C          1.6549988098       -1.8224449699       -0.2013193998
 H          1.5181577898       -2.0585397999       -1.2442553298
 N          3.8937158197       -1.0489762095       -0.7076040899
 S          4.6252838594        0.4546235306       -0.6166812497
 O          5.0279499893        0.7704061308       -1.9699219497
 O          5.6951878895        0.4038565707        0.3505201902
 C          3.3754479893        1.5999988603       -0.0505353195
 C          3.6628246392        2.4269548103        1.0171543105
 C          2.6999977891        3.3219348101        1.4542975907
 C          1.4673269590        3.3725182699        0.8218551708
 C          1.1953854991        2.5373435400       -0.2501447693
 C          2.1557544192        1.6434528902       -0.6958266595
 H          1.9401122393        0.9811679502       -1.5194589595
 H          0.2354804591        2.5595149699       -0.7422202292
 H          0.7133603189        4.0635549098        1.1649173909
 H          2.9107944990        3.9726941800        2.2876154407
 H          4.6303708492        2.3474083504        1.4858287105
 H          3.6235225596       -1.2515897095       -1.6596834399
 H          4.0204687797       -0.5842577098        1.8709194702
 H          2.1739468999       -0.9215813103        3.4979973003
 H         -0.0125483100       -1.7607016105        2.7205016803
 H         -1.2734757299       -2.9158885606        1.0486887403
 C         -0.7861705700       -3.2648845003       -1.0033990998
 C         -0.3466436797       -4.6931246002       -0.8887261100
 C         -1.7936398698       -4.3691624804       -1.1040938499
 H         -2.2320279998       -4.5794934504       -2.0682465099
 H         -2.4759830897       -4.5010599506       -0.2772237898
 H          0.2100032503       -5.1299953400       -1.7037527801
 H         -0.0449870496       -5.0433218603        0.0867652400
 H         -0.5485010801       -2.7334119301       -1.9168300998
