  62
        -98.94603176
 C          1.4624514549        1.0776876764        0.0945243620
 C          2.3894626295        0.7219941619        1.1009601243
 C          3.0195457343       -0.5977152022        0.9550443332
 C          2.6552302799       -1.3905551012       -0.0695177183
 C          3.2486433967       -2.7382551214       -0.3600674826
 C          4.4455293769       -2.6229864150       -1.3144069589
 C          5.4667028227       -1.5639882318       -0.8991275594
 H          6.2806093357       -1.5941434125       -1.6266855079
 H          5.0067312411       -0.5758892614       -0.9724906481
 C          6.0378652831       -1.7518239610        0.5133197900
 H          5.8609915236       -2.7732224101        0.8526081406
 H          7.1195252789       -1.6062307149        0.4760876664
 C          5.4930826323       -0.7712019044        1.5535926836
 H          5.5854210350        0.2508151548        1.1772279181
 H          6.1143444610       -0.8463417322        2.4501596392
 C          4.0384312024       -0.9961780112        1.9853703198
 H          3.9006515494       -2.0373931888        2.2849627691
 H          3.8485831231       -0.3614023752        2.8562544131
 H          4.9335626235       -3.5974581757       -1.3748310088
 H          4.0727595075       -2.3668771124       -2.3086750758
 H          3.5592600940       -3.2027923824        0.5738689596
 H          2.4837211697       -3.3617368378       -0.8259881641
 O          1.7276931688       -1.0315112096       -0.9929317594
 C          1.1193019729        0.2163874774       -0.9489699406
 O          0.3084839106        0.4272393268       -1.8667531637
 H         -0.5430091717        0.6727365284        1.6731931123
 C         -1.2306407498        1.2432544665        1.0604298266
 C         -0.7280963812        2.2228942474        0.2123440998
 C         -1.6243865336        2.9489914089       -0.5600651067
 C         -2.9821123262        2.6835513395       -0.4967792587
 C         -3.4749165407        1.6936913659        0.3326042286
 C         -2.5870233491        0.9695810436        1.1180562672
 N         -3.0749293053       -0.0567809092        1.9520313673
 S         -4.0112679376       -1.2277896471        1.1998728236
 O         -5.3558642382       -0.7309134277        1.0476961220
 O         -3.8657077306       -2.4125450081        2.0168030880
 C         -3.2668080286       -1.4712269826       -0.4015276222
 C         -2.0170201442       -2.0556702704       -0.4557941805
 C         -1.4049054483       -2.2169173908       -1.6868978491
 C         -2.0465572244       -1.7845182755       -2.8366340627
 C         -3.3001712781       -1.1990529364       -2.7656690738
 C         -3.9194703386       -1.0380767810       -1.5367910511
 H         -4.8937813642       -0.5883480621       -1.4370039046
 H         -3.7934114781       -0.8610831677       -3.6628147214
 H         -1.5581314114       -1.8987842559       -3.7911315470
 H         -0.4226373709       -2.6575652275       -1.7458299440
 H         -1.5443798974       -2.3805889210        0.4585537564
 H         -2.3526636814       -0.4959392567        2.5049541670
 H         -4.5268145633        1.4640260828        0.3840911442
 H         -3.6657045956        3.2518257707       -1.1086556326
 H         -1.2600671037        3.7171778032       -1.2219053130
 C          0.7666878911        2.4247068072        0.1687022960
 H          1.0848342660        2.8702428601        1.1231768201
 C          1.2250533872        3.3193241388       -0.9638579264
 C          1.2551035964        4.8075909492       -0.7898511152
 C          2.5365819095        4.0323965738       -0.8352619230
 H          3.1646373820        4.1204501762       -1.7091024259
 H          3.0866460980        3.8958768815        0.0845983887
 H          0.9388346367        5.2070332838        0.1618716868
 H          1.0057540384        5.4311867120       -1.6350709999
 H          0.9656648425        2.9204600180       -1.9380681414
 O          2.6698895961        1.4668499229        2.0799015413
