  62
        -98.94298154
 C         -1.4977473408       -1.3406026355       -0.3341076854
 C         -1.5815184677        0.0446822587       -0.6227647224
 C         -2.6691668023        0.7744784381        0.0510237439
 C         -3.4678436463        0.1301628457        0.9189467957
 C         -4.6328617313        0.7449557890        1.6382606193
 C         -5.9316396026        0.5845980104        0.8355314412
 C         -5.8079640758        1.0011457425       -0.6300731929
 H         -5.1248554986        0.3163352205       -1.1375889873
 H         -6.7912003534        0.8739569663       -1.0880651090
 C         -5.3279632000        2.4437838138       -0.8416120653
 H         -5.9492014672        2.9107880408       -1.6087923235
 H         -5.4613643548        3.0169284809        0.0765975841
 C         -3.8760575155        2.5675236486       -1.3076686892
 H         -3.7139342734        1.9227971800       -2.1750763713
 H         -3.7093190428        3.5988482228       -1.6297416816
 C         -2.8082975539        2.2388871458       -0.2564780379
 H         -1.8381979253        2.5559659277       -0.6508492889
 H         -2.9999035298        2.8056786903        0.6573241503
 H         -6.7113054141        1.1754730233        1.3197533685
 H         -6.2305079712       -0.4656609393        0.8690903107
 H         -4.7453042212        0.2421205217        2.6004866952
 H         -4.4276891226        1.7993066527        1.8146149391
 O         -3.3301741522       -1.1898343880        1.2069814613
 C         -2.3522591396       -1.9494924234        0.5885329322
 O         -2.3458190866       -3.1498165976        0.9317718359
 H          0.7301932222       -0.2656869524        0.4676168890
 C          1.2499055323       -1.2016819921        0.5832694296
 C          0.7738883991       -2.3376759637       -0.0548087767
 C          1.4414188585       -3.5419957660        0.1380156416
 C          2.5650104079       -3.5996050507        0.9432662579
 C          3.0376621537       -2.4644792101        1.5758401844
 C          2.3657329734       -1.2573871115        1.4060189438
 N          2.7920837254       -0.1146488990        2.0861045065
 S          2.4326156262        1.4539908225        1.6530246048
 O          3.2135918048        2.2429153934        2.5832121177
 O          1.0093556862        1.6751890428        1.6765646471
 C          3.1119673103        1.6637892452        0.0176505421
 C          4.4858881012        1.7962920339       -0.0709898025
 C          5.0700306213        1.9508832149       -1.3162280200
 C          4.2725350109        1.9739704557       -2.4511874401
 C          2.8977510874        1.8435110547       -2.3443112526
 C          2.3044389982        1.6819632523       -1.1002241300
 H          1.2359115416        1.5644766482       -1.0051433425
 H          2.2718392943        1.8627599562       -3.2219191484
 H          4.7240923150        2.0964730227       -3.4230449865
 H          6.1399167324        2.0548016630       -1.3991016829
 H          5.0658339598        1.7959671539        0.8375500900
 H          3.6622723930       -0.1947019928        2.5881144724
 H          3.9066652870       -2.5115508456        2.2138154143
 H          3.0754075670       -4.5399357866        1.0857471271
 H          1.0617722967       -4.4394286309       -0.3278033030
 C         -0.4500536937       -2.2636786818       -0.9348294792
 H         -0.9103880711       -3.2653876232       -0.9328760422
 C         -0.1094649170       -1.9241414703       -2.3799149869
 C          1.1919889029       -1.3128508268       -2.7928515105
 C          0.8977596444       -2.7404048967       -3.1349982543
 H          0.6856508679       -2.9939662998       -4.1626198776
 H          1.4329202556       -3.5040441069       -2.5924029198
 H          1.1687454285       -0.5733572818       -3.5776242681
 H          1.9226745157       -1.1080148309       -2.0254757215
 H         -0.9865396798       -1.6056471189       -2.9335907039
 O         -0.8088024606        0.6587415809       -1.4014995725
