  62
        -98.93506506
 C          1.1343378644        1.5835683964        0.3718969370
 C          1.7792576972        0.5773959744        1.1328865968
 C          2.9427235325       -0.0846945985        0.5172690276
 C          3.2905685133        0.2350221487       -0.7427922612
 C          4.4436876850       -0.2269003631       -1.6093017117
 C          5.2701640527       -1.4508109653       -1.2240349363
 C          4.5160881166       -2.7777400150       -1.2984975273
 H          5.1678089682       -3.5624550689       -0.9082268736
 H          4.3156562595       -3.0035327208       -2.3488100175
 C          3.1834304641       -2.8219205879       -0.5547980823
 H          2.7578883532       -3.8182069631       -0.6977517012
 H          2.4870966025       -2.1093831290       -1.0016805597
 C          3.2634103847       -2.5607454263        0.9476757737
 H          3.9812879210       -3.2454896241        1.4032983713
 H          2.2781708583       -2.7712774590        1.3693554598
 C          3.6325937455       -1.1238478145        1.3534315269
 H          4.7094204719       -0.9709007460        1.3408048541
 H          3.2917462873       -0.9662875071        2.3808915372
 H          5.7081933998       -1.3150154516       -0.2395666787
 H          6.0999582807       -1.5017658132       -1.9343858651
 H          5.1167224271        0.6343288740       -1.6877428139
 H          4.0226933104       -0.3783315691       -2.6083212513
 O          2.5902805580        1.1559391059       -1.4659302661
 C          1.5072261704        1.8503223326       -0.9452897184
 O          0.9907668967        2.6444128718       -1.7516946489
 O          1.4073569840        0.2508562031        2.2916360361
 C         -0.0409961396        2.3040327620        1.0079121351
 C         -1.2243235265        2.2844366619        0.0752443389
 C         -1.7180393828        3.4161849607       -0.5598038023
 C         -2.7906464572        3.3171124695       -1.4277050575
 C         -3.4040767316        2.0998628142       -1.6599244130
 C         -2.9212245326        0.9616071568       -1.0248703662
 C         -1.8337743358        1.0604765035       -0.1727162848
 H         -1.4523912303        0.1714359777        0.3102496355
 N         -3.5156401212       -0.2939860314       -1.2352996844
 S         -3.8127536055       -1.2734344904        0.0913548050
 O         -4.9076681468       -2.1252971727       -0.3239240173
 O         -4.0347465187       -0.4915439550        1.2850485680
 C         -2.3563437234       -2.2802432400        0.2660127024
 C         -1.7197654487       -2.3539365434        1.4885264043
 C         -0.6303413573       -3.1988852985        1.6279116405
 C         -0.2001863033       -3.9521273452        0.5468106686
 C         -0.8432786765       -3.8584133964       -0.6782975203
 C         -1.9349155759       -3.0179700048       -0.8226859763
 H         -2.4687027704       -2.9275522584       -1.7540749245
 H         -0.4997994874       -4.4416568671       -1.5174799124
 H          0.6402442034       -4.6185997481        0.6614347183
 H         -0.1246049487       -3.2615172734        2.5785203726
 H         -2.0833981765       -1.7486424805        2.3040198479
 H         -4.3050819778       -0.2825846595       -1.8652670660
 H         -4.2463489353        2.0259493756       -2.3315349456
 H         -3.1582888312        4.2014569809       -1.9260053566
 H         -1.2446880521        4.3700106388       -0.3950774071
 H         -0.2972661312        1.6862574689        1.8850267620
 C          0.2831147359        3.6918071190        1.5399005091
 C          1.6400770937        3.9994649991        2.0972890891
 C          1.1874734301        4.6494302011        0.8259925847
 H          0.9377917913        5.7002838727        0.8508543945
 H          1.6269187186        4.3282695152       -0.1049487811
 H          1.7054822945        4.6015635259        2.9910200675
 H          2.3905614622        3.2247511781        2.0353320632
 H         -0.5624742786        4.1247967698        2.0664224372
