  62
        -98.94300589
 C         -2.3367537969       -0.8948350290        0.4603958033
 C         -2.5185553261        0.1200361879       -0.5102357344
 C         -3.4901234592        1.1675025534       -0.1663975999
 C         -4.1133168894        1.1481550030        1.0249150040
 C         -5.1023129534        2.1638558430        1.5283463054
 C         -6.5411545254        1.9228855031        1.0514447704
 C         -6.7985443066        2.2341175853       -0.4234696740
 H         -7.8808155763        2.2308853054       -0.5673276711
 H         -6.4435418386        3.2402328274       -0.6488494139
 C         -6.1684013786        1.2325542943       -1.4013856865
 H         -5.9050126637        0.3171502958       -0.8664866558
 H         -6.9009007284        0.9575108184       -2.1636554153
 C         -4.9296760691        1.7525952866       -2.1308380906
 H         -5.2079871101        2.5895535834       -2.7752398788
 H         -4.5452202983        0.9513585943       -2.7672408238
 C         -3.7950220677        2.2066385204       -1.2032953745
 H         -2.8953369380        2.3504932786       -1.8066947701
 H         -4.0527624209        3.1534173998       -0.7293657033
 H         -6.8074048452        0.8833681911        1.2562496892
 H         -7.1945491523        2.5580293847        1.6539670604
 H         -5.0856506165        2.0987217950        2.6183885048
 H         -4.7829280195        3.1642566267        1.2350206187
 O         -3.8891552105        0.1743993617        1.9456377615
 C         -3.0243667242       -0.8716762689        1.6794726582
 O         -2.9493915054       -1.7135704917        2.5965061593
 H          0.1462472903       -0.3110730134       -1.0764680127
 C          0.6836867273       -0.7699145672       -0.2596934627
 C          0.0338120060       -1.6955429698        0.5439264158
 C          0.7352967593       -2.2690904098        1.5979667478
 C          2.0518983832       -1.9188464735        1.8401872266
 C          2.6933896782       -0.9885310766        1.0420438723
 C          2.0014148667       -0.4097189421       -0.0137452901
 N          2.6274643378        0.5593775108       -0.8142351253
 S          4.1756988925        0.2723235849       -1.3875797581
 O          4.3039116176        1.1003632792       -2.5667028935
 O          4.4249636156       -1.1396728321       -1.5644683610
 C          5.2307884501        0.9226566662       -0.1086318528
 C          6.2191669121        0.1297098765        0.4406605235
 C          7.0354846391        0.6625522906        1.4263758075
 C          6.8507128722        1.9721768233        1.8420321398
 C          5.8553587892        2.7565026001        1.2781418133
 C          5.0367403073        2.2301007744        0.2918996070
 H          4.2544667942        2.8066655970       -0.1731068192
 H          5.7146811820        3.7746547963        1.6037269304
 H          7.4864213457        2.3847161946        2.6094815481
 H          7.8104651589        0.0550196888        1.8653986987
 H          6.3227437639       -0.8847509214        0.0896912275
 H          2.0297016535        0.9303112526       -1.5386826795
 H          3.7179224180       -0.7106689597        1.2281035854
 H          2.5842508185       -2.3720329372        2.6625473003
 H          0.2364108834       -2.9845343234        2.2356020054
 C         -1.4013747747       -2.0799744601        0.2711816104
 H         -1.6992013981       -2.8136343690        1.0321149612
 C         -1.5382933621       -2.7279341677       -1.0935982179
 C         -1.0987997978       -4.1487519513       -1.2702639114
 C         -2.5578906217       -3.8063946323       -1.2943773006
 H         -3.0847230148       -3.8485751622       -2.2359282127
 H         -3.1617273599       -4.0878185241       -0.4436341136
 H         -0.6190422640       -4.4277549631       -2.1959707102
 H         -0.7137254580       -4.6646656430       -0.4036782459
 H         -1.3722474833       -2.0441585577       -1.9155238721
 O         -1.9129588309        0.1787629084       -1.6148888872
