  62
        -98.93453723
 C         -2.3244245076       -0.1854645224       -0.2437424796
 C         -3.3518733499        0.7324200079        0.0902029391
 C         -4.6257113183        0.1348617492        0.5279234199
 C         -4.7376971747       -1.2013004332        0.6233889071
 C         -5.9888741813       -1.9345485941        1.0096540877
 C         -6.8295709795       -2.2881203751       -0.2252239554
 C         -7.0545793757       -1.1129869275       -1.1767766208
 H         -6.0969414421       -0.8193839145       -1.6129729172
 H         -7.6828736011       -1.4726282457       -1.9945683625
 C         -7.7123738896        0.1128666798       -0.5279290602
 H         -8.4961953901        0.4822872640       -1.1926034233
 H         -8.1912331070       -0.1759480724        0.4083340624
 C         -6.7601779527        1.2820310193       -0.2696074425
 H         -6.2098685833        1.5159300633       -1.1845554676
 H         -7.3607117727        2.1598205773       -0.0163349793
 C         -5.7462412776        1.0790210287        0.8632057413
 H         -5.2735346049        2.0453302879        1.0623245358
 H         -6.2650100486        0.7567897355        1.7682292029
 H         -6.3185560483       -3.0810666704       -0.7761684163
 H         -7.7929087572       -2.6749105030        0.1120784293
 H         -5.7030957200       -2.8558936793        1.5198058411
 H         -6.5692532727       -1.3173594697        1.6926756979
 O         -3.7190587402       -2.0494271208        0.3283143936
 C         -2.5027534084       -1.5662712172       -0.1207721898
 O         -1.6656828456       -2.4548541642       -0.3797759675
 O         -3.2347744131        1.9830317724        0.0379625950
 C         -0.9579826419        0.2448492948       -0.7482409938
 C          0.0074641368        0.5125717872        0.3783025072
 C         -0.3762246910        1.2075365748        1.5200935971
 C          0.5392115193        1.4641707660        2.5244327489
 C          1.8567754637        1.0625216147        2.3944221729
 C          2.2523738619        0.3725713957        1.2551717117
 C          1.3214712096        0.0803100973        0.2684055392
 H          1.6328906338       -0.4759975366       -0.6016422471
 N          3.5915302890       -0.0451402309        1.0880200492
 S          4.4319126321        0.5810776186       -0.2407108088
 O          4.7976293045        1.9572137472        0.0278075794
 O          3.6773856784        0.3479221116       -1.4429946304
 C          5.8857333635       -0.4472346979       -0.2183469385
 C          7.0909049862        0.0684460175        0.2168546277
 C          8.2027600251       -0.7590405435        0.2434291285
 C          8.0893027554       -2.0804381401       -0.1604372656
 C          6.8716504959       -2.5833333605       -0.5952018336
 C          5.7568878436       -1.7611450765       -0.6254658087
 H          4.7933112447       -2.1073702099       -0.9619740458
 H          6.7871769607       -3.6109827606       -0.9101574920
 H          8.9552345270       -2.7231010560       -0.1385492392
 H          9.1513514372       -0.3708578750        0.5777283972
 H          7.1336827690        1.1036608654        0.5147017207
 H          4.1430350887        0.1480572808        1.9156188939
 H          2.5750874590        1.2817280210        3.1706479539
 H          0.2272794840        1.9987494733        3.4091913100
 H         -1.3931823312        1.5579832897        1.6070106372
 H         -0.5699729356       -0.6209559402       -1.3088176970
 C         -1.0271096663        1.4142828909       -1.7233985469
 C         -0.5451258070        2.7919401689       -1.3947686674
 C          0.2226088437        1.9449833497       -2.3622339694
 H          0.1926200561        2.2023941005       -3.4105724780
 H          1.1717508159        1.5405713537       -2.0398947690
 H         -1.1180833183        3.6262666519       -1.7694748725
 H         -0.1200973906        2.9632488951       -0.4179700564
 H         -1.9044012055        1.3545923881       -2.3599964174
