  62
        -98.93590344
 C          2.5162993911        0.9128163006        0.3698304352
 C          2.9951834872       -0.1291110211        1.2047542537
 C          3.7782050197       -1.1839821580        0.5483747790
 C          3.9700226709       -1.1257125877       -0.7818889903
 C          4.7134750233       -2.1506093750       -1.5876674309
 C          3.7681223234       -3.2380280863       -2.1166528989
 C          2.8462378317       -3.8267506935       -1.0488274388
 H          2.1544233807       -3.0518974131       -0.7101874653
 H          2.2477894256       -4.6040502229       -1.5287536974
 C          3.5772099201       -4.4194353372        0.1640985220
 H          3.1280439046       -5.3849027892        0.4061806348
 H          4.6225497772       -4.6027859019       -0.0866938567
 C          3.5033055272       -3.5639933517        1.4303303220
 H          3.8541071203       -4.1692796137        2.2704106243
 H          2.4629050791       -3.2969600444        1.6322165210
 C          4.3369200002       -2.2763438597        1.4166261291
 H          5.3651582527       -2.5068653253        1.1302465272
 H          4.3453451392       -1.8757667219        2.4346299555
 H          4.3707371552       -4.0333671664       -2.5590381979
 H          3.1471956020       -2.8037039119       -2.9036163021
 H          5.1827785440       -1.6466049824       -2.4342772907
 H          5.4889418593       -2.5976506596       -0.9684682737
 O          3.4590526357       -0.1375980872       -1.5574287019
 C          2.7096420089        0.8996889817       -1.0129067090
 O          2.2928301269        1.7118677255       -1.8576769321
 O          2.7751342219       -0.1755491792        2.4451641517
 C          1.7159456852        2.0230166065        1.0276274888
 C          0.4286235266        2.2570328612        0.2778198848
 C          0.1349485256        3.4358815790       -0.3931542499
 C         -1.0653023552        3.5747299338       -1.0681889663
 C         -1.9938384670        2.5510281830       -1.0880513886
 C         -1.7134235043        1.3684557751       -0.4151444273
 C         -0.5128972454        1.2346531671        0.2665620573
 H         -0.2904513662        0.3126025265        0.7905564121
 N         -2.6417382331        0.3097087171       -0.4418831103
 S         -4.2720457589        0.7055028490       -0.2384964967
 O         -4.7910266463        1.1700471875       -1.5003527578
 O         -4.4285113657        1.6094856033        0.8792892172
 C         -4.9670429148       -0.8889971789        0.1467305712
 C         -5.2206471054       -1.2194212939        1.4643210598
 C         -5.7438013503       -2.4702600675        1.7526421022
 C         -5.9992177759       -3.3651724556        0.7245826969
 C         -5.7388340892       -3.0189365986       -0.5931978333
 C         -5.2177498161       -1.7694225619       -0.8887530237
 H         -5.0092493826       -1.4533469681       -1.8975231104
 H         -5.9411041347       -3.7167472352       -1.3896668021
 H         -6.4066364202       -4.3376627069        0.9516823819
 H         -5.9501150018       -2.7410586709        2.7756348746
 H         -5.0141196640       -0.4891796423        2.2303720540
 H         -2.3748222603       -0.4426367404        0.1785136020
 H         -2.9311552488        2.6515628982       -1.6110949258
 H         -1.2798626602        4.4940552723       -1.5923733473
 H          0.8548816731        4.2373597631       -0.4076274696
 H          1.4565951510        1.6166593190        2.0198986675
 C          2.5036524008        3.2988950730        1.2838860998
 C          3.9761076092        3.2507469056        1.5595992306
 C          3.4709655207        3.8717000006        0.2936033574
 H          3.5233148654        4.9463629005        0.1954728082
 H          3.6118778008        3.3427401138       -0.6355035752
 H          4.3768202116        3.8954656223        2.3272803302
 H          4.4645768524        2.2890919175        1.4972084053
 H          1.9294013798        4.0120771280        1.8679251209
