  62
        -98.93875324
 C         -1.7183998698       -0.8010105974        0.1640189073
 C         -3.0266491929       -1.0788060285        0.6251756389
 C         -3.9853865055        0.0312543178        0.5466518045
 C         -3.5817947054        1.2266484909        0.0796943242
 C         -4.4120001615        2.4790408923       -0.0201310153
 C         -5.5930964471        2.4348342904       -1.0089588079
 C         -6.9342034499        2.0444158346       -0.3754543409
 H         -6.9033526275        2.2840982007        0.6881395279
 H         -7.7216338010        2.6616852888       -0.8127151416
 C         -7.3595908831        0.5842771172       -0.5580357518
 H         -8.1780463033        0.3850551222        0.1371643648
 H         -7.7485598712        0.4497752631       -1.5700054681
 C         -6.2651777304       -0.4620599833       -0.3462249558
 H         -5.5968136161       -0.4751729708       -1.2106452714
 H         -6.7371227245       -1.4459491647       -0.3079270015
 C         -5.4112094707       -0.2530989445        0.9195467566
 H         -5.4012933481       -1.1672945908        1.5165214327
 H         -5.8178472921        0.5519471967        1.5297277589
 H         -5.3516185730        1.7654600097       -1.8342937971
 H         -5.6937405717        3.4381390474       -1.4260292936
 H         -4.7829019605        2.7343337262        0.9750621518
 H         -3.7183895116        3.2634291569       -0.3294050772
 O         -2.3058421647        1.4569653341       -0.3355931791
 C         -1.3501487956        0.4524477819       -0.3221459423
 O         -0.2344342880        0.7999184643       -0.7518947485
 O         -3.3735204716       -2.1972373413        1.0912684536
 C         -0.6805176858       -1.9078663194        0.1828582594
 C          0.5298867578       -1.4790218010        0.9733472036
 C          0.3505645277       -0.9998111385        2.2695230125
 C          1.4296607452       -0.5977687297        3.0313317840
 C          2.7129567983       -0.6569101189        2.5145794344
 C          2.9041278638       -1.1388599143        1.2264793175
 C          1.8176584253       -1.5570219793        0.4681440194
 H          1.9998164162       -1.9216396051       -0.5283005984
 N          4.1980066859       -1.2375369355        0.6795698847
 S          4.5498329851       -0.4662218604       -0.7649347802
 O          3.7005951256       -0.9697811157       -1.8119017327
 O          5.9719543373       -0.6627814775       -0.9460461832
 C          4.2287746293        1.2590797881       -0.4440966289
 C          2.9282150305        1.7216998290       -0.4369565888
 C          2.6993010637        3.0515459352       -0.1165051779
 C          3.7607209758        3.8887239284        0.1889453422
 C          5.0612116048        3.4064844399        0.1764513738
 C          5.2987142398        2.0787270535       -0.1374826485
 H          6.2921306715        1.6605094794       -0.1629724662
 H          5.8865028773        4.0589937921        0.4121172268
 H          3.5723627070        4.9215662265        0.4368810543
 H          1.6831720598        3.4132275188       -0.1093161843
 H          2.1073158914        1.0644587413       -0.6773748461
 H          4.9339981887       -1.0431430306        1.3446449010
 H          3.5581520773       -0.3375334335        3.1053828243
 H          1.2723809961       -0.2285677038        4.0334928521
 H         -0.6528840434       -0.9462930178        2.6697842370
 H         -1.1570802318       -2.7466206953        0.7122227009
 C         -0.3589459030       -2.3482146180       -1.2298680628
 C          0.0976400132       -3.7501717293       -1.4969685116
 C         -1.2739596335       -3.3157849728       -1.9160331912
 H         -1.4745095774       -3.1788761603       -2.9681804370
 H         -2.1210831768       -3.6802949441       -1.3532968496
 H          0.8442428366       -3.9095071456       -2.2606525118
 H          0.1821448822       -4.4174535486       -0.6525408657
 H          0.0668246256       -1.5527041515       -1.8325919863
