  62
        -98.93919230
 C         -2.2805013277       -0.9070218989        0.6597490069
 C         -3.3514335130       -0.8615625205       -0.2664332428
 C         -4.3790969011        0.1598670560       -0.0098768288
 C         -4.2581236054        0.9708775307        1.0558328376
 C         -5.2003137376        2.0879520590        1.3976621670
 C         -4.7521764582        3.4097791713        0.7584963454
 C         -4.4268132314        3.2973978824       -0.7310205864
 H         -4.1532795495        4.2956346557       -1.0796830657
 H         -3.5468090465        2.6618729417       -0.8563613877
 C         -5.5739787933        2.7508923437       -1.5923180233
 H         -6.5165496628        2.8354440851       -1.0503599586
 H         -5.6600450814        3.3653515240       -2.4908889798
 C         -5.3844985333        1.3058454382       -2.0569776317
 H         -4.3994158323        1.1947535995       -2.5170978805
 H         -6.1317251252        1.0956409228       -2.8267375323
 C         -5.5320745000        0.2322878551       -0.9716428396
 H         -6.4716153222        0.3774286189       -0.4349085677
 H         -5.5663258553       -0.7407084121       -1.4700530603
 H         -5.5416330545        4.1490125218        0.9059532989
 H         -3.8571256320        3.7593281690        1.2785188775
 H         -6.2007684758        1.8284483245        1.0569591516
 H         -5.2141233503        2.2053677728        2.4825309884
 O         -3.2224084809        0.8901970084        1.9310344703
 C         -2.2133966221       -0.0400380026        1.7538872530
 O         -1.3286678082       -0.0046555865        2.6342629928
 H          1.0883020526       -0.4014606141        0.7421609625
 C          0.9021405582       -0.6886604272       -0.2837489517
 C         -0.2105270661       -1.4594003782       -0.5949469632
 C         -0.4422185083       -1.7937931500       -1.9247718134
 C          0.4302591997       -1.3736190945       -2.9124905794
 C          1.5563156596       -0.6357326521       -2.5954158942
 C          1.7898337434       -0.2848550033       -1.2703191215
 N          2.9116402835        0.4835220503       -0.9203038108
 S          3.6655124776        0.1756280683        0.5587012185
 O          3.6992216392       -1.2476312096        0.8090656261
 O          3.0498841642        0.9933884132        1.5736315092
 C          5.3110191082        0.7747203688        0.2185170625
 C          6.2809350686       -0.1197109128       -0.1937500698
 C          7.5506219995        0.3544547990       -0.4837861022
 C          7.8267527715        1.7078501927       -0.3601267580
 C          6.8433713851        2.5933229433        0.0556937771
 C          5.5718851701        2.1257969436        0.3482620472
 H          4.7785899866        2.7733413648        0.6841549103
 H          7.0625387440        3.6442683655        0.1541844084
 H          8.8155429162        2.0745827155       -0.5859297663
 H          8.3180725483       -0.3319617296       -0.8032864519
 H          6.0223210995       -1.1638961660       -0.2658700374
 H          3.5784383916        0.5755404321       -1.6744610311
 H          2.2454449412       -0.3244288535       -3.3658743954
 H          0.2376120984       -1.6365575974       -3.9416528259
 H         -1.3216500643       -2.3614593123       -2.1810653418
 C         -1.1311508239       -1.8935483844        0.5212779160
 H         -0.5633634468       -1.8185347697        1.4593869334
 C         -1.6029019095       -3.3251101527        0.3611445660
 C         -0.6186202861       -4.4344668814        0.5724649394
 C         -1.7096257427       -4.1988164340        1.5725916215
 H         -2.5224231942       -4.9074978670        1.6263193904
 H         -1.4435180666       -3.7661631096        2.5265368339
 H         -0.6801292972       -5.3070136644       -0.0594893318
 H          0.3894084787       -4.1580897313        0.8460881610
 H         -2.3535904224       -3.4520828783       -0.4073680763
 O         -3.4672165316       -1.6297257067       -1.2562338749
