  62
        -98.94101577
 C          1.7095700356        0.1938065711        0.9398472230
 C          2.9202090849        0.9012867591        0.7404581314
 C          4.1181481686        0.0760119702        0.5169078391
 C          4.0113907481       -1.2641884614        0.4998565193
 C          5.1377297883       -2.2142596625        0.2160093688
 C          5.2305074034       -2.5341993331       -1.2826521394
 C          5.2086208258       -1.2979213262       -2.1817088802
 H          5.3108124597       -1.6440272098       -3.2125656335
 H          4.2319674295       -0.8149883499       -2.1007976046
 C          6.3078923144       -0.2708389367       -1.8765639775
 H          7.0999723736       -0.7385304498       -1.2906141011
 H          6.7524530771        0.0569077862       -2.8186948334
 C          5.8184697446        0.9856767680       -1.1542617186
 H          4.9635408003        1.4064014165       -1.6895849742
 H          6.6201734540        1.7285335301       -1.1830779589
 C          5.4213790496        0.7974231700        0.3152786514
 H          6.2273433553        0.2939929755        0.8528647859
 H          5.2852885072        1.7912083691        0.7516848922
 H          6.1483919626       -3.0980408253       -1.4588242219
 H          4.3838274433       -3.1689157984       -1.5540202922
 H          6.0717467254       -1.7769715705        0.5634011694
 H          4.9537786026       -3.1392325723        0.7650636431
 O          2.8340331068       -1.9103793064        0.6934338625
 C          1.6649329786       -1.2046623633        0.9123929467
 O          0.6592685766       -1.9244904860        1.0743069350
 H         -2.0223812103        0.1221679390        0.2192705882
 C         -1.5409052207        0.8432172265       -0.4235542579
 C         -0.2820216136        1.3227994359       -0.0934849474
 C          0.3330922255        2.2349899252       -0.9441657916
 C         -0.3053307294        2.6524953927       -2.0973609635
 C         -1.5723670365        2.1917606572       -2.4102826464
 C         -2.1965095390        1.2823807465       -1.5650064169
 N         -3.4766968853        0.7903094186       -1.8536739959
 S         -4.5744268326        0.5295643982       -0.6174746403
 O         -5.8666329479        0.5788718050       -1.2676183515
 O         -4.3762326167        1.4537219613        0.4741274637
 C         -4.2621225370       -1.1393428185       -0.0854254448
 C         -4.2496817200       -2.1389529806       -1.0376488952
 C         -4.0291361132       -3.4452390467       -0.6327734573
 C         -3.8287667018       -3.7288308854        0.7097453820
 C         -3.8487039679       -2.7146347288        1.6541414071
 C         -4.0683417038       -1.4059405371        1.2550265011
 H         -4.0860110432       -0.5863526336        1.9566757264
 H         -3.6892406314       -2.9365886586        2.6972115688
 H         -3.6538143962       -4.7458831644        1.0233050476
 H         -4.0115114723       -4.2380277563       -1.3632518578
 H         -4.4119942423       -1.8802016409       -2.0707062444
 H         -3.9145235963        1.1912827075       -2.6701284572
 H         -2.0756297088        2.5323074822       -3.3026433865
 H          0.1827053749        3.3570112976       -2.7540910299
 H          1.3129581912        2.6102885394       -0.6922963292
 C          0.3712043649        0.8691279130        1.1903044907
 H         -0.2727459900        0.0936009406        1.6271266558
 C          0.4435792535        2.0298473260        2.1656934305
 C         -0.8317861897        2.5466921655        2.7584467128
 C          0.1427908784        1.7945553807        3.6134851105
 H          0.7086282896        2.3413613480        4.3528736781
 H         -0.1127230538        0.7889434456        3.9149550550
 H         -0.9330074237        3.6106595134        2.9098781110
 H         -1.7534910007        2.0603285158        2.4726202842
 H          1.2141300984        2.7492091450        1.9229284180
 O          3.0256836276        2.1569419284        0.7418887145
