  62
        -98.94416986
 C         -2.6335244077       -1.0983374932        0.1960061463
 C         -2.7461519396       -0.2937708803       -0.9638277022
 C         -3.5668598482        0.9180517644       -0.8229638089
 C         -4.1506144948        1.1867022701        0.3592321935
 C         -4.9623391973        2.4138945728        0.6556711939
 C         -4.0816080653        3.5403800133        1.2145743930
 C         -2.8188080728        3.8021707952        0.3934382836
 H         -2.2904052931        4.6334595512        0.8654921466
 H         -2.1645899008        2.9291848894        0.4569297670
 C         -3.0787486554        4.1320866634       -1.0831437478
 H         -2.4568134005        4.9839580068       -1.3657025398
 H         -4.1187240294        4.4315352457       -1.2173860270
 C         -2.7487090556        2.9968652269       -2.0542164238
 H         -1.7376714218        2.6293042525       -1.8601106501
 H         -2.7596000665        3.4039575319       -3.0686408748
 C         -3.7078111175        1.7999606519       -2.0316458580
 H         -4.7366800491        2.1498239194       -2.1364628775
 H         -3.4687137285        1.1676801462       -2.8916029582
 H         -4.6789307715        4.4523517098        1.2670871894
 H         -3.7803683805        3.2731444295        2.2303867239
 H         -5.4578243507        2.7438089156       -0.2552116884
 H         -5.7195402690        2.1549086158        1.3975988780
 O         -4.0215358348        0.3867816402        1.4497068877
 C         -3.2508302527       -0.7639517187        1.4000641055
 O         -3.1899623983       -1.3904753634        2.4787409373
 O         -2.1897252927       -0.5693896197       -2.0576217664
 C         -1.7939759730       -2.3617108690        0.1562951735
 C         -0.3679761591       -2.0328982430       -0.2174291796
 C          0.3789344503       -2.7890409135       -1.1109690326
 C          1.6894057846       -2.4452984724       -1.3958916923
 C          2.2828943179       -1.3480267388       -0.8002759650
 C          1.5500950193       -0.5924608111        0.1059705957
 C          0.2405225124       -0.9435364773        0.3941975185
 H         -0.3274391444       -0.3557238341        1.1064932346
 N          2.1416719100        0.5306816424        0.7123456315
 S          3.6244248715        0.3212448117        1.4745835617
 O          3.7769139449       -1.0265963131        1.9719811594
 O          3.6959966270        1.3805419614        2.4574911426
 C          4.8167917193        0.6386562543        0.1914932621
 C          4.7338277760        1.8352699400       -0.4932283574
 C          5.6619468672        2.1026989119       -1.4867840593
 C          6.6536067390        1.1764318229       -1.7742606230
 C          6.7254271254       -0.0185872284       -1.0750201692
 C          5.7988823244       -0.2933401331       -0.0810482255
 H          5.8108709545       -1.2114448047        0.4843277292
 H          7.4973198008       -0.7369245570       -1.2997306248
 H          7.3746543309        1.3876735554       -2.5480569314
 H          5.6087617930        3.0306184373       -2.0331114304
 H          3.9500774000        2.5286959263       -0.2373457118
 H          1.5116695177        1.0451223729        1.3108041111
 H          3.3003411736       -1.0731907915       -1.0257216655
 H          2.2556846270       -3.0393080098       -2.0967846901
 H         -0.0661104589       -3.6468342339       -1.5875811994
 H         -1.7893562530       -2.7570705737        1.1834350194
 C         -2.4371246299       -3.3860586798       -0.7558325596
 C         -2.2740851205       -4.8504645585       -0.4840349523
 C         -3.5938135152       -4.1849412999       -0.2378224685
 H         -4.4145181575       -4.3985036077       -0.9059193186
 H         -3.8980230644       -4.0090097184        0.7841621697
 H         -2.1919752037       -5.5250437548       -1.3229152511
 H         -1.6850425527       -5.1380455438        0.3738988989
 H         -2.4787799738       -3.0551363334       -1.7870343266
