  62
        -98.94552299
 C         -1.6376387159       -0.9558853807        0.1024627867
 C         -2.6195260621       -0.6231718133        1.0645209347
 C         -3.2824712995        0.6759213129        0.8840318522
 C         -2.9019140651        1.4733173880       -0.1310420329
 C         -3.5258552641        2.7980723920       -0.4597028410
 C         -4.6793264389        2.6353011242       -1.4596838788
 C         -5.6821547242        1.5473808652       -1.0754015857
 H         -6.4662285279        1.5449968164       -1.8356226740
 H         -5.1880673524        0.5741396237       -1.1204702034
 C         -6.3158845501        1.7286467413        0.3109531225
 H         -6.1844950115        2.7578070437        0.6474193355
 H         -7.3900952092        1.5488270958        0.2316368813
 C         -5.7831329532        0.7741552248        1.3812363215
 H         -5.8282144802       -0.2532765745        1.0110765040
 H         -6.4418877345        0.8369695501        2.2515542204
 C         -4.3548769417        1.0487213957        1.8686310499
 H         -4.2620692492        2.0961213103        2.1640386924
 H         -4.1801390302        0.4269279366        2.7519428669
 H         -5.1953495988        3.5929464380       -1.5493011983
 H         -4.2585985031        2.3831616932       -2.4357231634
 H         -3.8880803716        3.2614805937        0.4560952987
 H         -2.7614638514        3.4394641322       -0.9018559640
 O         -1.9238725773        1.1382410498       -1.0104136094
 C         -1.2788113689       -0.0905943459       -0.9317432072
 O         -0.4226307793       -0.2772918857       -1.8131485759
 H          0.3374226024       -0.4209220085        1.6319936728
 C          1.0445606790       -1.0575338363        1.1139840251
 C          0.5687225764       -2.0919097292        0.3179291350
 C          1.4919164118       -2.8990507564       -0.3344962676
 C          2.8501343568       -2.6681691684       -0.1964804867
 C          3.3182286511       -1.6285257813        0.5850486404
 C          2.4029908966       -0.8145582085        1.2406820138
 N          2.8654514718        0.2643537980        2.0144828634
 S          4.0537341379        1.2348288240        1.3412335076
 O          5.3484891016        0.6605669976        1.6134536125
 O          3.8256485229        2.5513346094        1.8965682486
 C          3.7560331665        1.2310865113       -0.4181768237
 C          4.7673095116        0.8555730117       -1.2789524193
 C          4.5144336418        0.8371593563       -2.6409921580
 C          3.2588634495        1.1843505430       -3.1147943085
 C          2.2539875738        1.5634844514       -2.2380936022
 C          2.5044881412        1.5908775394       -0.8765173781
 H          1.7362984664        1.8786231374       -0.1755325843
 H          1.2692985155        1.8093827142       -2.6012957748
 H          3.0565518798        1.1574596523       -4.1738246450
 H          5.2931922928        0.5448135743       -3.3268944778
 H          5.7242893667        0.5813317177       -0.8654115343
 H          2.1270193003        0.8250064607        2.4136688024
 H          4.3720460024       -1.4328358775        0.7004326753
 H          3.5545851615       -3.3039247548       -0.7102180782
 H          1.1478924821       -3.7085658888       -0.9566978243
 C         -0.9233989664       -2.2903003125        0.2072030101
 H         -1.2792915328       -2.7407323315        1.1463570869
 C         -1.3254603303       -3.1879994863       -0.9453338542
 C         -1.3976397748       -4.6739185479       -0.7640210645
 C         -2.6572037253       -3.8729998740       -0.8943863227
 H         -3.2318546686       -3.9545060074       -1.8048532936
 H         -3.2600511756       -3.7178169713       -0.0112197649
 H         -1.1094039889       -5.3087819744       -1.5882626627
 H         -1.1511096231       -5.0728389674        0.2083537292
 H         -0.9974522177       -2.8023122063       -1.9041094425
 O         -2.9222565430       -1.3730072004        2.0327296575
