  62
        -98.93934138
 C         -2.6711154979       -1.1864806068       -0.0728540001
 C         -2.8118911195       -0.0754604259       -0.9385805269
 C         -4.1647166262        0.4922078762       -1.0317019469
 C         -5.1669329869       -0.0721838892       -0.3332534668
 C         -6.5787201041        0.4356144532       -0.2959474837
 C         -6.7822963091        1.4242997763        0.8606280958
 C         -5.7170957415        2.5185293595        0.9324447311
 H         -5.9797378300        3.1736236211        1.7659960808
 H         -4.7532645869        2.0639146211        1.1734458807
 C         -5.5759358160        3.3523654298       -0.3486511663
 H         -5.5114094870        4.4072432960       -0.0737671241
 H         -6.4656001348        3.2329262955       -0.9680418235
 C         -4.3323646287        3.0323773963       -1.1804346536
 H         -3.4461583931        3.0579573005       -0.5409057201
 H         -4.2155664256        3.8173883989       -1.9323097555
 C         -4.3521033309        1.6890847621       -1.9208386285
 H         -5.2737771866        1.6006107561       -2.4994717235
 H         -3.5066726883        1.6805143219       -2.6149267480
 H         -7.7683980945        1.8802802420        0.7556320802
 H         -6.7640095784        0.8667597614        1.8000082332
 H         -6.8118775693        0.9160513098       -1.2440463371
 H         -7.2467131900       -0.4158896748       -0.1558374765
 O         -4.9959658283       -1.1553748116        0.4679550090
 C         -3.7457909632       -1.7288275651        0.6305376330
 O         -3.7205373479       -2.6996076959        1.4146959299
 H          1.2683816502       -1.3666047418       -0.7522411738
 C          0.9699713968       -0.7110177718        0.0516291161
 C         -0.3046016632       -0.8112114508        0.5861365542
 C         -0.6504727683        0.0392203578        1.6327870529
 C          0.2452523145        0.9763951357        2.1096555611
 C          1.5108154758        1.0857083063        1.5596733506
 C          1.8741051979        0.2303920749        0.5297183626
 N          3.1632579648        0.3316080075       -0.0415683192
 S          4.4808294164        0.0300305178        0.9740346921
 O          4.5471552426       -1.3802968677        1.2974340608
 O          4.4259839595        0.9341873590        2.0929281983
 C          5.8309467024        0.4749769370       -0.1000158637
 C          6.0326493417        1.8149811377       -0.3699642531
 C          7.0674062738        2.1787336348       -1.2163370658
 C          7.8784438077        1.2020066527       -1.7756010963
 C          7.6635605501       -0.1385500809       -1.4947444521
 C          6.6289377472       -0.5092305026       -0.6497009152
 H          6.4292114131       -1.5386082949       -0.3986020009
 H          8.2967617478       -0.8952025342       -1.9294445993
 H          8.6841723190        1.4880093832       -2.4331651951
 H          7.2387308138        3.2200824003       -1.4367574901
 H          5.3821807626        2.5393770413        0.0913923317
 H          3.2498252845       -0.2745165802       -0.8482268765
 H          2.2198701807        1.8065702052        1.9310322088
 H         -0.0441726375        1.6327896350        2.9169543657
 H         -1.6382785126       -0.0439117490        2.0670016382
 C         -1.3097021213       -1.8314723022        0.1080272386
 H         -1.4306959217       -2.5826621501        0.9029948517
 C         -0.9014220897       -2.5379768357       -1.1685276325
 C         -0.0174480882       -3.7470981070       -1.1170812906
 C         -1.4702574471       -3.8940936140       -1.4538195735
 H         -1.7435156784       -4.1361011458       -2.4698548818
 H         -2.1298913421       -4.3191120906       -0.7111742960
 H          0.3155996153       -4.0834846728       -0.1464950089
 H          0.7055929048       -3.8931353437       -1.9058160311
 H         -0.7921200670       -1.8551616165       -2.0035701424
 O         -1.8599014106        0.4158164547       -1.5991300616
