  62
        -98.93371388
 C         -2.5608808319        1.3815031023       -0.2651560970
 C         -2.8092112642        0.5524554104        0.8541592863
 C         -3.8982623038       -0.4350494514        0.7085913585
 C         -4.5781822222       -0.5038360841       -0.4479961963
 C         -5.6689688166       -1.4714192079       -0.8145623608
 C         -5.0875338950       -2.6900519519       -1.5511821919
 C         -4.6072461744       -3.8222662152       -0.6439670996
 H         -5.4729922695       -4.3179105897       -0.1998390392
 H         -4.1004595943       -4.5537173960       -1.2775357509
 C         -3.6557698640       -3.4028761648        0.4798999092
 H         -2.9218874362       -2.6920779966        0.0950812510
 H         -3.1069610805       -4.2899764421        0.8024617162
 C         -4.3824564838       -2.8018810893        1.6924922737
 H         -4.0453746750       -3.3053942266        2.6010669959
 H         -5.4492832383       -3.0067409201        1.6041306442
 C         -4.1635554840       -1.2968122115        1.9133230076
 H         -5.0237950988       -0.8868780775        2.4529995337
 H         -3.2919192378       -1.1472156016        2.5585273397
 H         -5.8515489709       -3.0932378285       -2.2188125260
 H         -4.2602161907       -2.3406371488       -2.1742483321
 H         -6.2288002248       -1.7732928089        0.0656192470
 H         -6.3391943965       -0.9415870376       -1.4945624407
 O         -4.3043964411        0.3094538275       -1.5042715448
 C         -3.3054070419        1.2598680756       -1.4426817228
 O         -3.1772629179        1.9357783507       -2.4825653709
 O         -2.1600074220        0.6061166745        1.9325341953
 C         -1.4940709691        2.4648810724       -0.2844690434
 C         -0.1416536598        1.9054219937       -0.6438996286
 C          0.6279185507        2.4817223776       -1.6472068215
 C          1.8805972972        1.9772157408       -1.9511351351
 C          2.3901386502        0.8915091765       -1.2617661645
 C          1.6286308919        0.3078773878       -0.2576795552
 C          0.3726159939        0.8136697197        0.0423375558
 H         -0.2100686469        0.3656271747        0.8340804690
 N          2.1422960562       -0.7963739771        0.4515821439
 S          3.5938477264       -0.5435633039        1.2659089742
 O          3.6050185425       -1.5085234576        2.3431162473
 O          3.7484311754        0.8433616320        1.6404443502
 C          4.8363955221       -0.9939650312        0.0729854120
 C          4.8263523738       -2.2831652847       -0.4225794901
 C          5.7908926945       -2.6521488044       -1.3465076069
 C          6.7451777381       -1.7319880295       -1.7547457508
 C          6.7438762789       -0.4426373992       -1.2449878402
 C          5.7809812515       -0.0667159598       -0.3211753244
 H          5.7371510476        0.9254497864        0.0989130484
 H          7.4867091707        0.2710598711       -1.5632469281
 H          7.4946237001       -2.0219240986       -2.4741972154
 H          5.7957571064       -3.6541101841       -1.7445288751
 H          4.0711785092       -2.9679712499       -0.0743739153
 H          1.4660128753       -1.2028240587        1.0835286087
 H          3.3649989325        0.4945603493       -1.4935761130
 H          2.4667760037        2.4340495298       -2.7337191455
 H          0.2336948960        3.3254110612       -2.1947807917
 H         -1.7962658904        3.1449362212       -1.0962923938
 C         -1.4669918109        3.2842754061        1.0008122753
 C         -0.3374428675        3.2680192319        1.9827512879
 C         -0.5540123368        4.4690239031        1.1149176057
 H         -0.9322908188        5.3748106548        1.5638475426
 H          0.1484610736        4.6321615932        0.3114071168
 H         -0.5884211912        3.3294689158        3.0310472741
 H          0.5180552761        2.6406328649        1.7834243812
 H         -2.4602607382        3.3979018087        1.4237584569
