  62
        -98.94951889
 C          1.5591342523        0.9323797373       -0.7037328890
 C          1.3633162329        1.7151064072        0.4592669512
 C          0.2891704842        2.7167359086        0.3840957910
 C         -0.4525738352        2.8067702400       -0.7342002192
 C         -1.5710624038        3.7854190516       -0.9499082794
 C         -2.9339747847        3.2149049232       -0.5370002802
 C         -2.9530641561        2.5869898428        0.8567959796
 H         -3.9806470466        2.2740429341        1.0589286290
 H         -2.3421892174        1.6811916020        0.8675734196
 C         -2.4710195754        3.5128103917        1.9816394201
 H         -3.1502584359        3.4096337124        2.8305807598
 H         -2.5122867739        4.5534045619        1.6559111505
 C         -1.0657704561        3.1903104197        2.4943752106
 H         -0.9248352658        3.7012413592        3.4510761409
 H         -0.9880612676        2.1150139795        2.6788478703
 C          0.0910978849        3.6079096485        1.5771649913
 H         -0.0420669536        4.6471242988        1.2664932016
 H          1.0162733545        3.5380663171        2.1570978316
 H         -3.6685133836        4.0218448042       -0.5799813702
 H         -3.2293393154        2.4518875739       -1.2612641606
 H         -1.6016697430        4.0357499520       -2.0121698393
 H         -1.3611509428        4.6896842911       -0.3813935690
 O         -0.2707736658        1.9982693601       -1.8105000494
 C          0.7307771130        1.0393843488       -1.8194905293
 O          0.7814351725        0.3585520591       -2.8637456095
 O          2.0652058223        1.6038486159        1.4987155414
 C          2.6491718210       -0.1254749041       -0.7359932889
 C          2.3780096091       -1.1480111241        0.3406808706
 C          3.3393947881       -1.6259422657        1.2208521709
 C          2.9922856065       -2.5385391256        2.2027461304
 C          1.6878624158       -2.9771956539        2.3382418197
 C          0.7214760668       -2.5141333023        1.4521654395
 C          1.0805154084       -1.6314709924        0.4485000799
 H          0.3300236792       -1.2783467712       -0.2436308003
 N         -0.6147164538       -2.9328560106        1.5389412687
 S         -1.8317694021       -1.8440779488        1.1650535486
 O         -1.4777200705       -0.4919892094        1.5254230792
 O         -3.0064635532       -2.3848733375        1.8186471379
 C         -2.0387341516       -1.9996055179       -0.5954316216
 C         -2.1901337898       -0.8638470775       -1.3643290512
 C         -2.3688848093       -0.9942574468       -2.7317285514
 C         -2.3979613408       -2.2564321366       -3.3031447518
 C         -2.2527355726       -3.3894884670       -2.5166942521
 C         -2.0726802430       -3.2642524477       -1.1487880220
 H         -1.9526629044       -4.1205017781       -0.5063088423
 H         -2.2749468837       -4.3688410468       -2.9671450525
 H         -2.5304385304       -2.3543301660       -4.3690448719
 H         -2.4656145079       -0.1104704764       -3.3419184011
 H         -2.1440483687        0.1015724823       -0.8849071009
 H         -0.8386232948       -3.4926614905        2.3487632584
 H          1.4155152046       -3.6664198638        3.1229923094
 H          3.7464595457       -2.8995743168        2.8855946506
 H          4.3559306786       -1.2757624870        1.1479576915
 H          2.5578506607       -0.6253355337       -1.7117492391
 C          4.0183717818        0.5131087940       -0.6388496781
 C          5.2067070811       -0.1540401973       -1.2620075778
 C          4.6373577631        1.0885212736       -1.8759892176
 H          5.1944279242        2.0095896129       -1.7930186471
 H          4.0798626833        0.9972102647       -2.7969669579
 H          6.1597451710       -0.0845971087       -0.7596660974
 H          5.0431769701       -1.0907472269       -1.7729320782
 H          4.1600929521        1.0540874335        0.2895665022
