  62
        -98.94407805
 C          2.6943932399        1.0454019604        0.1594362005
 C          2.6948654901        0.2092940004       -0.9835506995
 C          3.4209902200       -1.0613600696       -0.8444033294
 C          4.0401820598       -1.3447376096        0.3160415807
 C          4.7548948297       -2.6304204796        0.6141217008
 C          3.8065381696       -3.6540467496        1.2547833506
 C          2.4819559597       -3.8207925496        0.5094484303
 H          1.9055794696       -4.5834574196        1.0379310902
 H          1.9158523697       -2.8884105396        0.5750607502
 C          2.6284534700       -4.2197456796       -0.9657269396
 H          3.6268907600       -4.6212344996       -1.1424209894
 H          1.9147931000       -5.0166765596       -1.1846394798
 C          2.3536079402       -3.0892270696       -1.9592492297
 H          1.3930293102       -2.6214164495       -1.7278533798
 H          2.2723606904       -3.5268463295       -2.9575930297
 C          3.4197316003       -1.9884207696       -2.0270514394
 H          4.4049101103       -2.4368093296       -2.1688239792
 H          3.1960878304       -1.3632535395       -2.8962898295
 H          4.3199482195       -4.6157538797        1.3071690007
 H          3.5864429794       -3.3309224697        2.2751874106
 H          5.1703597299       -3.0316552196       -0.3080391391
 H          5.5699701196       -2.4192713897        1.3083166310
 O          4.0361721196       -0.5049899197        1.3839749007
 C          3.3479347696        0.6974720004        1.3401277806
 O          3.3881326894        1.3535445303        2.4020090406
 H          0.3942394197        0.4619729104        1.1876533300
 C         -0.1655654702        1.0552446704        0.4735686099
 C          0.4756348300        2.0962951904       -0.1867686999
 C         -0.2600777998        2.8616313405       -1.0816716801
 C         -1.5913916698        2.5691087905       -1.3238519503
 C         -2.2166121199        1.5141683805       -0.6855734705
 C         -1.4957363601        0.7527014605        0.2254200796
 N         -2.1095747603       -0.3343786195        0.8682922795
 S         -3.6458451604       -0.1479295495        1.5139427092
 O         -3.8826994005        1.2120413005        1.9394730892
 O         -3.7480096406       -1.1668079095        2.5359634092
 C         -4.7311558002       -0.5678237195        0.1666745290
 C         -5.7691332001        0.2784447006       -0.1706020112
 C         -6.6123764899       -0.0776155494       -1.2118288514
 C         -6.4041550498       -1.2672322794       -1.8926230914
 C         -5.3579688498       -2.1069437694       -1.5401433612
 C         -4.5125884300       -1.7579253095       -0.4992323010
 H         -3.6897897801       -2.3830255895       -0.1944143309
 H         -5.1980183297       -3.0308038894       -2.0723972612
 H         -7.0606633796       -1.5420841894       -2.7030018715
 H         -7.4262414798        0.5735399006       -1.4873950115
 H         -5.8884379102        1.1964992106        0.3824081888
 H         -1.5056151304       -0.8273339896        1.5091868796
 H         -3.2503122899        1.2788821905       -0.8792637907
 H         -2.1490654796        3.1682537905       -2.0273170704
 H          0.2101064003        3.6841750805       -1.5948343500
 C          1.9300331499        2.3561448904        0.1285943904
 H          1.9884978597        2.7690212004        1.1469463604
 C          2.5924216701        3.3255421604       -0.8284490095
 C          2.5170586901        4.8019156704       -0.5843383095
 C          3.8081857900        4.0720197304       -0.3711198892
 H          4.6132611702        4.2271804804       -1.0735122891
 H          4.1409950198        3.9016437204        0.6428070008
 H          2.4391148403        5.4623576504       -1.4347854395
 H          1.9765817399        5.1384739404        0.2876283604
 H          2.5780529903        2.9717682904       -1.8527892495
 O          2.1144633303        0.5029887605       -2.0599267696
