  62
        -98.94566002
 C         -2.0437118772       -1.0981434039       -0.4601284931
 C         -1.5190924757        0.0655302313       -1.0726679454
 C         -2.2864195670        1.3019186089       -0.8693751736
 C         -3.4086370815        1.2869079961       -0.1292738023
 C         -4.3296540021        2.4511253022        0.1186082666
 C         -3.8945994340        3.3722330758        1.2657406673
 C         -2.6843496090        4.2559972974        0.9630867951
 H         -2.6242294951        5.0024492523        1.7576134661
 H         -2.8488871960        4.7892949976        0.0261445971
 C         -1.3518985100        3.4976293301        0.8990793693
 H         -1.4536543704        2.5208066996        1.3782787516
 H         -0.5906196149        4.0395860113        1.4655384570
 C         -0.7955328894        3.2881255626       -0.5086021685
 H          0.1141403672        2.6911132746       -0.4078110553
 H         -0.5243674553        4.2521286081       -0.9460147906
 C         -1.7492795387        2.5666325188       -1.4694937527
 H         -1.1905909161        2.2972214831       -2.3692408521
 H         -2.5675912847        3.2295396938       -1.7516075735
 H         -3.6853614980        2.7605652585        2.1465188791
 H         -4.7420240222        4.0197667575        1.5030822578
 H         -4.4323707248        3.0348568342       -0.7968937693
 H         -5.3033527698        2.0249659614        0.3705294202
 O         -3.8688101429        0.1552336144        0.4678279172
 C         -3.1960597720       -1.0460613513        0.3304238803
 O         -3.7279752079       -1.9971917744        0.9399285390
 H          0.8265463785       -0.9796122369       -0.2090975301
 C          0.7586274341       -1.7779158378        0.5095844647
 C         -0.3216940741       -2.6484143435        0.4666789926
 C         -0.3938611869       -3.6749244961        1.4005908640
 C          0.5887553644       -3.8179700109        2.3638745009
 C          1.6430459614       -2.9260123015        2.4268590461
 C          1.7234521926       -1.8921514039        1.4989468847
 N          2.7819567699       -0.9743450314        1.5508707240
 S          2.5403958527        0.6753121867        1.3192499582
 O          3.3440676191        1.3092076756        2.3473483402
 O          1.1386903837        1.0068776047        1.3143168873
 C          3.3165387164        0.9870514237       -0.2541450264
 C          2.5809980538        1.0121344671       -1.4209773630
 C          3.2401699331        1.2404428361       -2.6202435327
 C          4.6117897159        1.4356536128       -2.6351889701
 C          5.3370823593        1.4070338313       -1.4532448557
 C          4.6857526732        1.1804916852       -0.2527212085
 H          5.2069719815        1.1652627698        0.6901842555
 H          6.4041528262        1.5607015001       -1.4647970345
 H          5.1166576150        1.6125185058       -3.5718955060
 H          2.6700599333        1.2608024933       -3.5354483325
 H          1.5134360491        0.8546655149       -1.3968094968
 H          3.4207521291       -1.1281566156        2.3176850609
 H          2.3984862235       -3.0219321771        3.1925201781
 H          0.5240208990       -4.6201862886        3.0834815413
 H         -1.2364158265       -4.3506856020        1.3796371593
 C         -1.4058161584       -2.4754754366       -0.5710264509
 H         -2.2066535561       -3.1896281405       -0.3334382039
 C         -0.8801535352       -2.7945964198       -1.9570316734
 C         -0.7451710714       -4.2287097740       -2.3680940869
 C         -1.8111574100       -3.3703936557       -2.9792467828
 H         -1.7019970198       -3.0597512883       -4.0072951471
 H         -2.8361586431       -3.5400291908       -2.6819793030
 H         -1.0489398821       -4.9842547756       -1.6593021472
 H          0.0994100435       -4.5113995769       -2.9772515332
 H         -0.1304017672       -2.0971939346       -2.3048077581
 O         -0.4785102023        0.0959116566       -1.7814946704
