  62
        -98.93831943
 C         -2.5050358342       -0.2362583127        0.4779204988
 C         -2.3301583204        0.4997717321       -0.7153065178
 C         -2.0850180138        1.9488554108       -0.5761104975
 C         -2.0327516445        2.4823443525        0.6582509252
 C         -1.7765388820        3.9133715164        1.0540173233
 C         -0.2990522198        4.3124257357        0.9329557184
 C          0.3741604506        3.8931887733       -0.3706483802
 H          1.4267474754        4.1817810699       -0.3021340346
 H          0.3524466708        2.8042789280       -0.4504187695
 C         -0.2023982667        4.5274489012       -1.6348213177
 H         -0.1556865303        5.6148938266       -1.5410799626
 H          0.4473155436        4.2364539085       -2.4638970228
 C         -1.6352774664        4.1300575913       -1.9996216494
 H         -1.7967509344        4.4188479704       -3.0422859045
 H         -2.3632571549        4.6818083200       -1.4106531409
 C         -1.9186706281        2.6345038794       -1.9103109333
 H         -2.8387700458        2.4162326108       -2.4657375960
 H         -1.1286052874        2.0844319142       -2.4346491067
 H          0.2485691607        3.8399102084        1.7526777875
 H         -0.2258648299        5.3952278329        1.0542593977
 H         -2.0756536684        4.0038152363        2.1010345792
 H         -2.4039947870        4.5813252863        0.4711221842
 O         -2.2010697387        1.7282370847        1.7848922541
 C         -2.4178276575        0.3664837273        1.7297032238
 O         -2.5264258513       -0.1883098433        2.8451729939
 O         -2.3760983109       -0.0250342014       -1.8599067956
 C         -2.7036417651       -1.7384846608        0.4190130753
 C         -1.5407195575       -2.3913873661       -0.2913371159
 C         -1.6765927434       -3.5174753187       -1.0930742806
 C         -0.5666350106       -4.0801759205       -1.7004476715
 C          0.6913411582       -3.5326009588       -1.5330662505
 C          0.8366193625       -2.3999618851       -0.7372943510
 C         -0.2713076350       -1.8587782291       -0.1086951980
 H         -0.1454682532       -0.9938159719        0.5263665428
 N          2.0896156579       -1.7815348735       -0.6005311567
 S          2.3517114000       -0.5778764459        0.5409412703
 O          2.1104475309       -1.0779682662        1.8784661446
 O          1.6231539559        0.6021393489        0.1511435553
 C          4.0999764192       -0.3213623236        0.3030652181
 C          4.9967054333       -1.0229585016        1.0868409473
 C          6.3549900096       -0.8451391709        0.8761859241
 C          6.7916917465        0.0256865627       -0.1108392971
 C          5.8802447805        0.7250094695       -0.8879164149
 C          4.5206448708        0.5513399088       -0.6821931614
 H          3.7747041142        1.0773892580       -1.2551693326
 H          6.2229369634        1.4040405549       -1.6518680947
 H          7.8490709705        0.1628706859       -0.2729756328
 H          7.0654340262       -1.3843765114        1.4817339009
 H          4.6105998208       -1.6792745850        1.8502073908
 H          2.8762112396       -2.4040725721       -0.7134185164
 H          1.5520384978       -3.9657796678       -2.0183927088
 H         -0.6850632464       -4.9573298053       -2.3184054146
 H         -2.6510667892       -3.9528683835       -1.2434167062
 H         -2.7006742023       -2.0858085150        1.4640828033
 C         -4.0445988714       -2.0723684603       -0.2034952653
 C         -4.8157902702       -3.2746653768        0.2494062846
 C         -5.2839067522       -1.9007603857        0.6208874288
 H         -6.1700198032       -1.5079395456        0.1455878449
 H         -5.1540107738       -1.5722230589        1.6422529465
 H         -5.3862952295       -3.8267511526       -0.4822241493
 H         -4.3805888318       -3.8854415886        1.0261296243
 H         -4.0945628541       -1.7916908013       -1.2492357950
