  62
        -98.94023158
 C         -2.6076417308       -0.8619679552       -0.1437203679
 C         -2.1625464162        0.1367593222       -1.0462822698
 C         -2.7317929411        1.4782763884       -0.8428862911
 C         -3.6587762047        1.6848318373        0.1085779070
 C         -4.3621751943        2.9825689854        0.4017966899
 C         -3.5839051712        3.9219149924        1.3325171509
 C         -2.3597447771        4.5879850040        0.7037072968
 H         -2.6481539989        5.0672676170       -0.2323119065
 H         -2.0349913862        5.3747850005        1.3873710978
 C         -1.1822835250        3.6351788042        0.4531858077
 H         -0.2546047941        4.0974228894        0.7974558103
 H         -1.3154032922        2.7224424488        1.0391343299
 C         -0.9708441260        3.2496490805       -1.0110742444
 H         -0.6934436413        4.1358792114       -1.5872045326
 H         -0.1362146285        2.5442072862       -1.0563263112
 C         -2.1906804162        2.5990105208       -1.6777495178
 H         -2.9632194290        3.3463808107       -1.8613488879
 H         -1.8734538754        2.1783132805       -2.6353092011
 H         -3.2777760176        3.3606701036        2.2182676212
 H         -4.2731096224        4.7055776527        1.6554425604
 H         -4.5836191743        3.4968030964       -0.5338035279
 H         -5.3045956716        2.7199808193        0.8872716727
 O         -4.0979826774        0.6885329242        0.9231371679
 C         -3.5605562460       -0.5836698592        0.8410408443
 O         -4.0229550936       -1.3835952487        1.6807084106
 H          0.1578684993       -0.7464579752       -0.2163430464
 C          0.2315341984       -1.5504503185        0.4992937862
 C         -0.8281634983       -2.4294014791        0.6734157912
 C         -0.6993502958       -3.4590617478        1.5986377243
 C          0.4665960336       -3.6092191778        2.3272642692
 C          1.5247470350       -2.7389762642        2.1435944926
 C          1.4025562115       -1.6972313363        1.2291098812
 N          2.4468676132       -0.7748885308        1.0689743480
 S          2.6636993230        0.0091537944       -0.4101968995
 O          1.7785756542        1.1425011651       -0.4696101576
 O          2.5951332179       -0.9452822863       -1.4930754744
 C          4.3438912940        0.5747820136       -0.2082598751
 C          5.3808117018       -0.2174043046       -0.6641130711
 C          6.6854575635        0.2118551607       -0.4781322589
 C          6.9304230607        1.4188784679        0.1594125888
 C          5.8798120628        2.2042721198        0.6099354140
 C          4.5729820867        1.7806309605        0.4265065921
 H          3.7238495081        2.3598214621        0.7504155331
 H          6.0735122189        3.1439058493        1.1016343477
 H          7.9463824418        1.7512183501        0.3028119158
 H          7.5038836297       -0.3947033658       -0.8309592852
 H          5.1418560584       -1.1422951526       -1.1641713990
 H          3.3225298252       -1.0940390801        1.4596809429
 H          2.4361863693       -2.8543653474        2.7100786703
 H          0.5538776948       -4.4131664723        3.0421467512
 H         -1.5262582423       -4.1366584323        1.7513626179
 C         -2.0934790052       -2.2916937267       -0.1418061163
 H         -2.8736608572       -2.8866566291        0.3542627799
 C         -1.8665754575       -2.8668561026       -1.5271201123
 C         -1.9868504676       -4.3457744442       -1.7328283480
 C         -3.0282361727       -3.4235994527       -2.2909795477
 H         -3.0651884303       -3.2633635208       -3.3578793412
 H         -3.9963285106       -3.3978009303       -1.8115942597
 H         -1.3036720328       -4.8246389411       -2.4173825861
 H         -2.2545343599       -4.9520936034       -0.8808203382
 H         -1.1058779796       -2.3393585930       -2.0885348310
 O         -1.3463347890       -0.0530327148       -1.9869185447
