  62
        -98.94197791
 C         -2.8359689549       -0.0158376404       -0.3603237288
 C         -2.2856179852       -0.4678779182        0.8648409762
 C         -2.0282934711       -1.9114948505        0.9469426269
 C         -2.4183808138       -2.7190935154       -0.0565679243
 C         -2.2605934694       -4.2147692542       -0.1032507762
 C         -0.8964522800       -4.6777649427       -0.6322618571
 C          0.2764376696       -4.4549666783        0.3228699071
 H          0.0395952239       -4.8896982578        1.2942894090
 H          1.1292388149       -5.0031501340       -0.0817767060
 C          0.6758322718       -2.9830750340        0.5030158366
 H          0.2460125037       -2.3855700094       -0.3051412101
 H          1.7611441999       -2.8870257742        0.4261358638
 C          0.2628494717       -2.3717437793        1.8427015725
 H          0.5870543283       -1.3264469609        1.8598960312
 H          0.7794372849       -2.8900482621        2.6540883533
 C         -1.2472259713       -2.4187994075        2.1207652937
 H         -1.5506799884       -3.4348821906        2.3739139454
 H         -1.4595371655       -1.7659798242        2.9708502838
 H         -0.6986484584       -4.1692963485       -1.5787447653
 H         -0.9716311612       -5.7476783776       -0.8384761650
 H         -3.0357671246       -4.5881161250       -0.7758166517
 H         -2.4293100211       -4.6321257044        0.8894647267
 O         -3.0361502983       -2.2527583478       -1.1751540098
 C         -3.2039135366       -0.8914046218       -1.3802173161
 O         -3.6874407935       -0.5936833657       -2.4916631252
 O         -2.0141505779        0.2915048318        1.8307599529
 C         -3.0152017688        1.4708262634       -0.5998845139
 C         -1.7201289428        2.2056808598       -0.3412754189
 C         -1.6806138920        3.4801201374        0.2102990453
 C         -0.4690153030        4.1050626328        0.4503038647
 C          0.7269120967        3.4783032570        0.1526120604
 C          0.6992413085        2.2065828922       -0.4046080889
 C         -0.5162102759        1.5928558541       -0.6636958051
 H         -0.5287039783        0.6005784792       -1.1000693930
 N          1.9119128311        1.5466990773       -0.7143022608
 S          2.9544486515        1.3041094742        0.5987805776
 O          2.2930211565        0.5568498807        1.6443622009
 O          3.5019158249        2.5811788942        0.9812612345
 C          4.2238781935        0.3132364450       -0.1631770214
 C          4.3461313939       -1.0197388396        0.1765455855
 C          5.3297988454       -1.7804983589       -0.4361635650
 C          6.1682628024       -1.1967388346       -1.3735694622
 C          6.0336924345        0.1440923840       -1.7032256662
 C          5.0527632764        0.9099793951       -1.0940292035
 H          4.9159833785        1.9558340603       -1.3128832985
 H          6.6896716763        0.5937039240       -2.4310095777
 H          6.9333556373       -1.7903654572       -1.8484391504
 H          5.4384284815       -2.8219856145       -0.1793200552
 H          3.6745054900       -1.4254240935        0.9167862726
 H          1.7294548549        0.6444784124       -1.1367575095
 H          1.6754310924        3.9431834550        0.3653638745
 H         -0.4551720259        5.0929821952        0.8855670993
 H         -2.6006722419        3.9806895248        0.4649901219
 H         -3.2728485328        1.5837922431       -1.6637491298
 C         -4.1664112292        1.9953727962        0.2360142592
 C         -5.0423436134        3.0979027078       -0.2766692259
 C         -5.5678774245        1.6968758332       -0.2019381676
 H         -6.3040886031        1.4580874824        0.5508001009
 H         -5.6884578218        1.1433319833       -1.1219832811
 H         -5.4225439532        3.8233094359        0.4269276599
 H         -4.8206171643        3.5016814998       -1.2530353154
 H         -3.9542163675        1.9586352265        1.2987880690
