  62
        -98.94321594
 C          1.0911713234        1.6655112857       -0.3505436378
 C         -0.1008843051        1.4895159411       -1.0883312091
 C         -1.3266949883        2.0934933253       -0.5344849498
 C         -1.2547309023        2.7274660046        0.6501801408
 C         -2.3701925959        3.3985839191        1.4069107902
 C         -3.2817650023        2.3983013145        2.1391992285
 C         -3.5997551859        1.1246352938        1.3592289271
 H         -2.6599988835        0.6402095481        1.0832822877
 H         -4.1160765836        0.4397162110        2.0389352961
 C         -4.4844367756        1.3167961609        0.1289218664
 H         -4.6542620608        0.3304837905       -0.3111686946
 H         -5.4539739176        1.7045558764        0.4515596958
 C         -3.9380690386        2.2432839342       -0.9576684623
 H         -4.0043564934        3.2812976037       -0.6434638315
 H         -4.5907399073        2.1397755521       -1.8296068630
 C         -2.5252314567        1.9211726408       -1.4355725312
 H         -2.3176755984        2.5242627224       -2.3282693005
 H         -2.4877297418        0.8798355612       -1.7731055720
 H         -4.2090600048        2.9058481902        2.4113808480
 H         -2.7771862919        2.0953393160        3.0599557387
 H         -1.9004876595        4.0470671506        2.1497898012
 H         -2.9433466280        4.0288421672        0.7325849202
 O         -0.0956344333        2.8146182891        1.3617653620
 C          1.0922208595        2.2774853647        0.9015084827
 O          2.0566397481        2.4219704083        1.6785037937
 O         -0.1446137613        0.8526080218       -2.1768030697
 C          2.3771968366        1.0532674418       -0.8812781471
 C          2.7456616308       -0.1058769874        0.0106720623
 C          3.9695281508       -0.2524232525        0.6481629834
 C          4.1837791846       -1.3208943923        1.5032519927
 C          3.1876974784       -2.2478518569        1.7496773410
 C          1.9636831985       -2.1161629817        1.1022083499
 C          1.7654846248       -1.0677935618        0.2217269606
 H          0.8150196548       -0.9652280956       -0.2805276603
 N          0.9242727423       -3.0365368664        1.3031984581
 S         -0.6651171998       -2.5220353333        1.2081239570
 O         -0.8305379962       -1.1690103744        1.6875379280
 O         -1.4142922961       -3.5347862871        1.9253850954
 C         -1.0860698877       -2.6296683437       -0.5191278035
 C         -0.3434264534       -3.4156044397       -1.3767714934
 C         -0.7254226217       -3.4972309403       -2.7065730239
 C         -1.8396904743       -2.8046710648       -3.1529666744
 C         -2.5800878786       -2.0271671688       -2.2769802445
 C         -2.2011796703       -1.9381948182       -0.9475470140
 H         -2.7410328136       -1.3359623412       -0.2338625841
 H         -3.4463703206       -1.4870266023       -2.6253786449
 H         -2.1312176730       -2.8662156852       -4.1895502147
 H         -0.1486936484       -4.0982033172       -3.3912616338
 H          0.5234093485       -3.9351965362       -1.0035073330
 H          1.0687468745       -3.7060916464        2.0443068277
 H          3.3496606413       -3.0627188867        2.4386182905
 H          5.1364454546       -1.4222454685        2.0007781836
 H          4.7481919678        0.4755894610        0.4911488748
 H          2.1195699193        0.6519425915       -1.8725887877
 C          3.4686465922        2.0881252767       -1.0367610951
 C          4.5828868942        1.8557533223       -2.0120549242
 C          3.5366278599        2.8882611080       -2.3018990844
 H          3.8065798953        3.9315554791       -2.2368587333
 H          2.8029848816        2.6742142754       -3.0652970153
 H          5.5750124724        2.1916236665       -1.7513081930
 H          4.5622210987        0.9401591927       -2.5832484650
 H          3.6958205090        2.6003944969       -0.1091074245
