  62
        -98.94508464
 C         -1.4694341035       -1.5231291932       -0.3582455231
 C         -2.7107028024       -1.4175933070        0.3218463941
 C         -3.6174588324       -0.3652156039       -0.1471722223
 C         -3.2576845088        0.4098506449       -1.1861286882
 C         -4.0742234816        1.5205579198       -1.7891481233
 C         -3.9348393796        2.8645470334       -1.0608500591
 C         -4.6211057520        2.9400423671        0.3034679396
 H         -4.6277885256        3.9905650548        0.6006126122
 H         -5.6600096966        2.6243111946        0.2034638289
 C         -3.9352169627        2.1194542888        1.4048736808
 H         -2.9177549863        1.8686836854        1.0957366162
 H         -3.8536569749        2.7232632386        2.3112887062
 C         -4.6677604766        0.8321992866        1.7839647455
 H         -5.6391293146        1.0772241033        2.2191876985
 H         -4.0785567356        0.3147857359        2.5452030126
 C         -4.8876306324       -0.1379799514        0.6153456347
 H         -5.2087998492       -1.0996726067        1.0227246192
 H         -5.6671523324        0.2390805361       -0.0462823499
 H         -2.8727577110        3.0927168434       -0.9462504834
 H         -4.3702621875        3.6308580049       -1.7062638292
 H         -3.7198212673        1.6455952816       -2.8147487847
 H         -5.1243552056        1.2287180929       -1.8186278173
 O         -2.0765749873        0.2517604377       -1.8382833291
 C         -1.1454410410       -0.6953633014       -1.4315552480
 O         -0.1008396756       -0.6893782244       -2.1113767360
 H          2.0955187598       -1.6829838681       -0.4931143749
 C          1.8041455647       -1.4478887619        0.5174398310
 C          0.5547666548       -1.8112495532        0.9991015064
 C          0.2112843291       -1.4615981704        2.3036797756
 C          1.0986478820       -0.7779933796        3.1111698598
 C          2.3466820068       -0.4228913605        2.6301813650
 C          2.6971850891       -0.7569589819        1.3278970763
 N          3.9682110648       -0.4124181085        0.8280774545
 S          4.0651121512        0.4768762547       -0.5892953254
 O          3.7111836659       -0.3467292965       -1.7140221201
 O          5.4122172933        1.0080465653       -0.5870631649
 C          2.8966907473        1.8008772817       -0.3439982303
 C          1.6002561223        1.6605120469       -0.7921477071
 C          0.6844332799        2.6610885111       -0.5042841347
 C          1.0752915204        3.7754843263        0.2203665375
 C          2.3859974115        3.9035643586        0.6566465181
 C          3.3053800544        2.9059707455        0.3784136852
 H          4.3348815031        2.9694696794        0.6923115410
 H          2.6896437400        4.7744546999        1.2148992067
 H          0.3561565545        4.5480486067        0.4433394511
 H         -0.3315750370        2.5518270520       -0.8524868031
 H          1.3193610695        0.7853131147       -1.3573544817
 H          4.5722601826        0.0036985276        1.5237066504
 H          3.0476653429        0.1058697982        3.2581677303
 H          0.8192442631       -0.5193298180        4.1210936939
 H         -0.7675962748       -1.7341687784        2.6721222889
 C         -0.4685818793       -2.5432712867        0.1622558874
 H         -1.0472008060       -3.1860150897        0.8409127649
 C          0.1331433946       -3.4121038292       -0.9192646282
 C          0.8079030494       -4.6915555245       -0.5273912422
 C         -0.5096879510       -4.7269759505       -1.2401319636
 H         -0.5325242975       -5.0506656432       -2.2699559477
 H         -1.3872885110       -5.0065797116       -0.6754208722
 H          1.6943910920       -4.9909494319       -1.0654732900
 H          0.8234948559       -4.9460457512        0.5217786308
 H          0.5524753908       -2.8547733232       -1.7473277992
 O         -3.0431671664       -2.1683502408        1.2767553979
