  62
        -98.94615604
 C         -1.8204053805       -0.9798629198       -0.3068068995
 C         -3.1755993305       -1.2985439097       -0.0522588894
 C         -4.1540962605       -0.2748563397       -0.4355132896
 C         -3.7343717105        0.8705922302       -1.0035869398
 C         -4.6131405604        1.9995034002       -1.4702769500
 C         -5.0168741704        2.9793939004       -0.3598376501
 C         -6.0464606904        2.4459964706        0.6371831800
 H         -6.3996659703        3.2988857207        1.2201960499
 H         -6.9035750504        2.0462137105        0.0944126701
 C         -5.5025515104        1.3817407507        1.6004994502
 H         -4.4105569704        1.4130813907        1.5982452502
 H         -5.8272731904        1.6108922109        2.6179781701
 C         -5.9567625005       -0.0446113593        1.2906975504
 H         -7.0386956105       -0.1214194392        1.4193627205
 H         -5.4841335705       -0.7194393192        2.0090420306
 C         -5.5975505705       -0.5281203896       -0.1203447695
 H         -5.7624918706       -1.6075076196       -0.1652828593
 H         -6.2387404105       -0.0459405197       -0.8579433396
 H         -5.4370046504        3.8639790403       -0.8439831703
 H         -4.1173049104        3.2896326204        0.1766067598
 H         -5.5085717105        1.5949821901       -1.9431020899
 H         -4.0411006004        2.5476909200       -2.2218740501
 O         -2.4219193105        1.1322356701       -1.2446960898
 C         -1.4333693905        0.2232621101       -0.8953685897
 O         -0.2755927505        0.5983331900       -1.1583365898
 O         -3.5476088606       -2.3833475095        0.4701468308
 C         -0.7470214206       -1.9897362897        0.0538538607
 C          0.2848157095       -1.3634065896        0.9577482906
 C         -0.1399229205       -0.6840708894        2.0977834304
 C          0.7715411396       -0.0943314893        2.9509508303
 C          2.1284011396       -0.1638033094        2.6838539003
 C          2.5641253495       -0.8474139196        1.5563661404
 C          1.6447681595       -1.4519476697        0.7079078405
 H          2.0140977494       -1.9722538299       -0.1591868094
 N          3.9377222795       -0.9656450397        1.2749862904
 S          4.5458579695       -0.5101251200       -0.2163306797
 O          3.9174507494       -1.2756215102       -1.2607254395
 O          5.9785051195       -0.6641519500       -0.0855156197
 C          4.1521150995        1.2235427400       -0.3668534900
 C          2.8605769296        1.6072299900       -0.6677733500
 C          2.5671508896        2.9613992800       -0.7259895103
 C          3.5572932997        3.9010756100       -0.4861695505
 C          4.8496782696        3.4974162600       -0.1849151004
 C          5.1502710096        2.1471226600       -0.1193863602
 H          6.1406087896        1.7867010200        0.1078940599
 H          5.6198937597        4.2288921600       -0.0001360806
 H          3.3197134397        4.9521775000       -0.5356136806
 H          1.5574088896        3.2600647400       -0.9595829903
 H          2.0939361895        0.8718290300       -0.8547299499
 H          4.5352831295       -0.5997611496        2.0032434103
 H          2.8425379196        0.3023423507        3.3456982102
 H          0.4250078096        0.4302449909        3.8286239102
 H         -1.2003501305       -0.6235052593        2.3026358005
 H         -1.2654183006       -2.7800596996        0.6175720508
 C         -0.1614383806       -2.5994421400       -1.2027120192
 C          0.3926478493       -3.9914882300       -1.1791734990
 C         -0.8996635207       -3.7108134201       -1.8839131690
 H         -0.9164857707       -3.7335563903       -2.9632900490
 H         -1.8174668307       -4.0487710600       -1.4251182489
 H          1.2691715293       -4.2043191701       -1.7729118490
 H          0.3535578493       -4.5289094298       -0.2436333289
 H          0.3314473894       -1.8683554101       -1.8352801694
