  62
        -98.93435371
 C         -2.4302822335       -1.2127197291        0.0390896511
 C         -2.4912101005        0.0583638237       -0.5743687604
 C         -3.8357477587        0.6444407040       -0.7551421066
 C         -4.9097391797       -0.0578585017       -0.3479342328
 C         -6.3593137564        0.3468913110       -0.3915198517
 C         -6.7237148612        1.3589370992        0.7070401540
 C         -5.7130475383        2.4858473065        0.9039190493
 H         -6.0257938612        3.0635016302        1.7777717039
 H         -4.7359031801        2.0562866326        1.1327002719
 C         -5.5790050211        3.4521448996       -0.2705080028
 H         -6.5500813241        3.9108868744       -0.4696569231
 H         -4.8937023855        4.2454468346        0.0387797898
 C         -5.0502069374        2.8511671698       -1.5744697220
 H         -4.7820361197        3.6838870559       -2.2313410472
 H         -5.8245090351        2.2894190901       -2.0899098094
 C         -3.7941546059        1.9983594302       -1.4220190667
 H         -3.0309111659        2.5734493616       -0.8848321034
 H         -3.3693737982        1.8221601866       -2.4180255132
 H         -6.8040070026        0.8160051529        1.6518713178
 H         -7.7030426833        1.7811594725        0.4760941779
 H         -6.6091553402        0.7338806519       -1.3747716579
 H         -6.9429093242       -0.5626379918       -0.2334516049
 O         -4.7998376048       -1.2872677548        0.2334531505
 C         -3.5776866261       -1.8924785148        0.4440863217
 O         -3.6391898154       -3.0112730758        0.9936984825
 O         -1.4696519232        0.6921344426       -0.9526064593
 C         -1.0898633073       -1.8883778770        0.2570403873
 C         -0.1642749935       -0.9964559613        1.0484846955
 C         -0.6499295535       -0.3471410979        2.1806535694
 C          0.1688276404        0.4777633691        2.9265792451
 C          1.4900462649        0.6700765179        2.5631980855
 C          1.9923045497        0.0086270157        1.4489888557
 C          1.1670478486       -0.8226960397        0.7037776819
 H          1.5792498099       -1.3177667051       -0.1587391402
 N          3.3475885234        0.1423423812        1.0999355103
 S          3.8229123610        0.1033409582       -0.5185836214
 O          3.1009214385        1.0929561852       -1.2864755242
 O          3.7558886414       -1.2546885906       -0.9954242585
 C          5.5305199560        0.5876662145       -0.3393907298
 C          6.4518527763       -0.3684897558        0.0442475677
 C          7.7753935123        0.0056924547        0.2126712262
 C          8.1542201950        1.3222872600       -0.0042295484
 C          7.2192311496        2.2702115698       -0.3917946124
 C          5.8933489126        1.9027059448       -0.5604404975
 H          5.1339565256        2.6030288501       -0.8697690027
 H          7.5172562298        3.2919706286       -0.5637149091
 H          9.1851945623        1.6108747900        0.1265111804
 H          8.5057912408       -0.7291342194        0.5106300924
 H          6.1127656723       -1.3804790750        0.1916285958
 H          3.7952378872        0.9104199166        1.5819353948
 H          2.1269910371        1.3229277273        3.1405617517
 H         -0.2261613342        0.9827561490        3.7955091817
 H         -1.6852200919       -0.4906865112        2.4605202112
 H         -1.2966068272       -2.7865442741        0.8587318211
 C         -0.5077886652       -2.3204862596       -1.0732736138
 C          0.3626852846       -3.5366388373       -1.1603425890
 C         -1.0246749774       -3.5659642985       -1.7257661603
 H         -1.1473558088       -3.5734313986       -2.7984517872
 H         -1.7827195632       -4.1229536663       -1.1940728545
 H          1.2016471499       -3.5196562565       -1.8401948689
 H          0.5485019227       -4.0828545608       -0.2477708869
 H         -0.2726665203       -1.4789265417       -1.7167969595
