  62
        -98.94532737
 C          2.6421754740        1.0943282988        0.2956682809
 C          2.5919319976        0.3283781394       -0.8945198971
 C          3.2504039412       -0.9850455576       -0.8379072615
 C          3.8501711016       -1.3750246646        0.3015665102
 C          4.5023201674       -2.7096643968        0.5155305448
 C          3.5053581551       -3.7270805073        1.0881875167
 C          2.1783656781       -3.7874592528        0.3305642611
 H          1.5657521931       -4.5583142363        0.8039019392
 H          1.6459655235       -2.8406913685        0.4552140934
 C          2.3160471124       -4.0925782043       -1.1675796317
 H          3.2972885424       -4.5242991915       -1.3690140903
 H          1.5682105984       -4.8398637487       -1.4410358121
 C          2.0940585936       -2.8873655870       -2.0836340191
 H          1.1499456204       -2.3987268853       -1.8245090104
 H          1.9977678159       -3.2543281719       -3.1091141613
 C          3.2075593301       -1.8318086769       -2.0783084215
 H          4.1717012433       -2.3143499387       -2.2511178793
 H          3.0125793730       -1.1421563326       -2.9047122273
 H          3.9736600862       -4.7127974944        1.0796863612
 H          3.2942088875       -3.4598967500        2.1262935795
 H          4.9015209597       -3.0691333115       -0.4306258458
 H          5.3233907846       -2.5822653230        1.2229015468
 O          3.8832109024       -0.6081717071        1.4218650734
 C          3.2633496606        0.6311797384        1.4543371064
 O          3.3296553367        1.2112188971        2.5578577126
 H          0.3510516419        0.6731866183        1.4967882088
 C         -0.1948879435        1.2654318004        0.7709052647
 C          0.4783043450        2.2598203332        0.0710336350
 C         -0.2324848957        3.0130892733       -0.8529189865
 C         -1.5745049272        2.7578418842       -1.0795218196
 C         -2.2358679853        1.7583858101       -0.3902388544
 C         -1.5363940704        1.0053420087        0.5441627657
 N         -2.2022582404       -0.0097384804        1.2592720893
 S         -2.9529078677       -1.2113958409        0.3512137773
 O         -3.0001852652       -2.3671150544        1.2211029545
 O         -2.3057841657       -1.3944192249       -0.9270882985
 C         -4.6051760703       -0.5892406660        0.1235173136
 C         -5.3473729828       -0.2913302662        1.2496773645
 C         -6.6354623931        0.1945522158        1.0924437970
 C         -7.1574524526        0.3700047592       -0.1806906675
 C         -6.4008874921        0.0620174686       -1.3010049212
 C         -5.1107266670       -0.4229355940       -1.1507582628
 H         -4.4821728295       -0.6695683664       -1.9916699926
 H         -6.8084929496        0.1983456333       -2.2897899728
 H         -8.1600137358        0.7491014769       -0.3005698912
 H         -7.2268150960        0.4352539593        1.9611051337
 H         -4.9048122518       -0.4462848657        2.2194608798
 H         -1.6275650101       -0.4330474728        1.9744678866
 H         -3.2783214424        1.5523491855       -0.5704016164
 H         -2.1125306867        3.3452429509       -1.8077658609
 H          0.2666790077        3.7911846498       -1.4063344400
 C          1.9500205903        2.4451434372        0.3540985349
 H          2.0568092855        2.7974561259        1.3906269459
 C          2.6306522941        3.4325196716       -0.5695485648
 C          2.5790716080        4.8999105585       -0.2708049239
 C          3.8588985281        4.1424108697       -0.0880284824
 H          4.6644068387        4.3100553105       -0.7870048965
 H          4.1917968639        3.9296068223        0.9177020534
 H          2.5091874846        5.5923539750       -1.0959677995
 H          2.0447167880        5.2110201483        0.6140274008
 H          2.6091928747        3.1161522338       -1.6058519411
 O          2.0271842463        0.7181159565       -1.9490754677
