  62
        -98.93750615
 C         -2.3741114596       -1.0170897510        0.0476444796
 C         -3.7324168096       -1.1920947409        0.4200872996
 C         -4.7200344396       -0.3938939714       -0.3168924810
 C         -4.2957825796        0.4615289181       -1.2643242214
 C         -5.1852024696        1.3787622976       -2.0516093721
 C         -5.3322901598        2.7407544479       -1.3588484229
 C         -5.6848641600        2.6451138387        0.1256591771
 H         -4.8467505000        2.1941235491        0.6623481575
 H         -5.7923701501        3.6655176089        0.4999759566
 C         -6.9650079099        1.8526138888        0.4254760274
 H         -7.5676322898        1.7665581382       -0.4793907526
 H         -7.5561375301        2.4071136191        1.1573112071
 C         -6.7264033198        0.4590972891        1.0096745883
 H         -6.0466258400        0.5306745497        1.8624887883
 H         -7.6808386399        0.0790236093        1.3834342584
 C         -6.1684394196       -0.5858130614        0.0353654489
 H         -6.2313939296       -1.5620705311        0.5249271895
 H         -6.7832576795       -0.6129558619       -0.8665768311
 H         -4.3865127698        3.2800148280       -1.4514039331
 H         -6.1016641698        3.3122041176       -1.8813698433
 H         -6.1616621895        0.9134359874       -2.1721316019
 H         -4.7393677195        1.5288479770       -3.0363419921
 O         -2.9863900595        0.6215178080       -1.5798242214
 C         -1.9895350696       -0.1016151415       -0.9334511208
 O         -0.8407837995        0.1671268884       -1.3321075609
 O         -4.1014194396       -1.9811219904        1.3301342500
 C         -1.3361291096       -1.8246075204        0.8078110402
 C         -0.2233694997       -0.9229224201        1.2774270298
 C         -0.4830939000       -0.0065532295        2.2924687993
 C          0.5010968799        0.8588934108        2.7289570789
 C          1.7666044400        0.8285880507        2.1685524091
 C          2.0328307202       -0.0725030299        1.1469638996
 C          1.0413438403       -0.9457118702        0.7140201900
 H          1.2515176705       -1.6273088307       -0.0956874596
 N          3.3197852103       -0.1512509301        0.5762221498
 S          4.1620990202        1.2352965897        0.1161795891
 O          4.3506017900        2.0778980404        1.2697745687
 O          3.5441903103        1.8595195590       -1.0340604713
 C          5.7145085903        0.4927164696       -0.3476944803
 C          6.6064724402        0.1544405503        0.6518933600
 C          7.8023980903       -0.4533057898        0.3050301605
 C          8.0845501205       -0.7123508205       -1.0280851693
 C          7.1800255006       -0.3659296912       -2.0203159596
 C          5.9813433105        0.2413711289       -1.6795950101
 H          5.2521167306        0.5346459684       -2.4180567703
 H          7.4027655808       -0.5662820517       -3.0560451494
 H          9.0159957006       -1.1855341106       -1.2961452989
 H          8.5091959003       -0.7227273993        1.0731493608
 H          6.3476299801        0.3817001108        1.6726282699
 H          3.3288174404       -0.7960977205       -0.2038468998
 H          2.5359988899        1.5078012709        2.4956682888
 H          0.2851315097        1.5668200713        3.5154328585
 H         -1.4730396300        0.0254434406        2.7276773791
 H         -1.8757264997       -2.1869548800        1.6984182004
 C         -0.8385290494       -3.0620381208        0.0760671410
 C         -1.7573724992       -3.8471648414       -0.8100439687
 C         -0.6041274092       -3.0977151716       -1.4034755490
 H          0.2373435909       -3.6662190217       -1.7728787186
 H         -0.8048370492       -2.2008384620       -1.9683544695
 H         -1.7094823291       -4.9250643514       -0.7758191081
 H         -2.7531186892       -3.4578536516       -0.9644192790
 H         -0.1521231094       -3.6386979004        0.6890522614
