  62
        -98.93743493
 C          2.2898283838       -0.2996178168        0.4381808970
 C          3.5137706645       -0.4879864043        1.1302468963
 C          4.7165777120       -0.6002501777        0.2985879238
 C          4.6026362840       -0.5793518683       -1.0414299619
 C          5.7321065986       -0.7036284748       -2.0277636054
 C          6.4618296161        0.6167826224       -2.3107082815
 C          7.3553308697        1.1233012564       -1.1776474150
 H          7.9682854970        1.9278221679       -1.5887563228
 H          8.0308751619        0.3265061904       -0.8650825932
 C          6.5907851324        1.6598600609        0.0406906569
 H          5.5535409147        1.8592784284       -0.2392650303
 H          7.0248957542        2.6121960209        0.3535036495
 C          6.6063975625        0.7335728516        1.2568825571
 H          6.0044844344        1.1926349148        2.0455932437
 H          7.6284858485        0.6343351101        1.6287911931
 C          6.0454970576       -0.6690533838        0.9883243321
 H          5.8955112720       -1.1687067254        1.9484819371
 H          6.7521935696       -1.2504790327        0.3967983733
 H          5.7200008029        1.3795469728       -2.5586055914
 H          7.0854962870        0.4607358392       -3.1939177643
 H          5.2911420290       -1.0603786506       -2.9609608585
 H          6.4468330231       -1.4471469078       -1.6738726362
 O          3.4032864503       -0.4631844691       -1.6696617613
 C          2.2203869524       -0.3050004065       -0.9556890879
 O          1.2121617115       -0.1945510198       -1.6774585399
 O          3.5948341659       -0.5664554078        2.3850077423
 C          1.0327450543       -0.1443383158        1.2732702866
 C         -0.0786156812       -1.0115785460        0.7395152469
 C          0.1070533704       -2.3920548280        0.7093512343
 C         -0.8855929984       -3.2292590352        0.2403250247
 C         -2.0962708742       -2.7109840850       -0.1855661540
 C         -2.2899277778       -1.3357994096       -0.1635958958
 C         -1.2827066091       -0.4953948715        0.2907511385
 H         -1.4559645021        0.5677134056        0.2740651672
 N         -3.4981365721       -0.7729827376       -0.6047224309
 S         -4.0821243365        0.5869783864        0.2061798467
 O         -3.5213516601        1.7727184163       -0.3911524190
 O         -3.8837646460        0.4361492814        1.6304921096
 C         -5.8194829434        0.4802251770       -0.1853437672
 C         -6.2651634179        0.9843718077       -1.3926528978
 C         -7.6099981777        0.8739118445       -1.7087877721
 C         -8.4816331772        0.2639461122       -0.8187603490
 C         -8.0200540817       -0.2360384631        0.3896119889
 C         -6.6761916030       -0.1298334985        0.7116851648
 H         -6.2738392864       -0.4951009266        1.6428828538
 H         -8.7004797495       -0.7066732361        1.0808309958
 H         -9.5278472604        0.1805974908       -1.0672076880
 H         -7.9729853352        1.2641263870       -2.6458836108
 H         -5.5526291001        1.4578399313       -2.0479960319
 H         -4.2220184215       -1.4605491367       -0.7617481511
 H         -2.8775368206       -3.3643615943       -0.5434297216
 H         -0.7224291175       -4.2963853841        0.2172603878
 H          1.0489347173       -2.7979263513        1.0539792235
 H          1.3149496022       -0.5375513315        2.2654640939
 C          0.6069198574        1.3000872691        1.4896982423
 C          1.6120459505        2.4112767299        1.5129045508
 C          0.6272016126        2.3153524746        0.3883134827
 H         -0.1804566514        3.0320313444        0.3413892749
 H          0.9757451039        1.9937656149       -0.5807757016
 H          1.4901143408        3.1990163068        2.2410073901
 H          2.6425004458        2.1567399031        1.3110889208
 H         -0.2116856516        1.3769751639        2.2006029610
