  62
        -98.93909741
 C          2.1962462814       -0.9353273741        0.0972270919
 C          3.0882200466       -0.5881089163       -0.9482486829
 C          3.9477106821        0.5930738905       -0.7459213732
 C          3.8245008275        1.2898648944        0.3987714002
 C          4.6068704251        2.4957940843        0.8458564020
 C          6.0239848395        2.1387512980        1.3242626005
 C          6.7670454799        1.1362106480        0.4449983877
 H          6.1791692636        0.2194678639        0.3718711674
 H          7.7025672822        0.8820430767        0.9502210954
 C          7.1133807042        1.6311102432       -0.9571827164
 H          7.7092407621        0.8513479895       -1.4383125624
 H          7.7373682921        2.5240905424       -0.8776136658
 C          5.9251006228        1.9493850902       -1.8668785518
 H          6.3134284143        2.0553502105       -2.8840803834
 H          5.4773021375        2.9048905027       -1.6072667628
 C          4.8547015914        0.8638314103       -1.9220992138
 H          5.3275747512       -0.0945128097       -2.1648754815
 H          4.1860947500        1.0764016906       -2.7651489138
 H          5.9424291730        1.7068333101        2.3247237210
 H          6.6038220100        3.0600193259        1.4010401786
 H          4.0569412997        2.9337063097        1.6819968126
 H          4.6395230899        3.2342012661        0.0501222446
 O          2.9414782901        0.9302717549        1.3722203899
 C          2.1115138009       -0.1698241870        1.2591262693
 O          1.3748809214       -0.3410187141        2.2522619381
 O          3.1770569633       -1.2499866935       -2.0171382468
 C          1.3158774733       -2.1557061903       -0.1221297344
 C         -0.0803198292       -1.7129800444       -0.4881696582
 C         -0.5016809795       -1.7373421208       -1.8132928073
 C         -1.7637349439       -1.2891421034       -2.1602935365
 C         -2.6284083782       -0.8023184543       -1.1960618586
 C         -2.2102455897       -0.7581121375        0.1271783858
 C         -0.9508283275       -1.2240625206        0.4753702905
 H         -0.6259416584       -1.1630640195        1.5029185311
 N         -3.0741913637       -0.2456241691        1.1138499692
 S         -3.7156034102        1.2850561018        0.8454741632
 O         -2.8576722700        2.0808206594       -0.0030466033
 O         -3.9988435577        1.8190612280        2.1599641495
 C         -5.2572249294        0.9518867091        0.0167858212
 C         -5.5117779277        1.5098773835       -1.2206469384
 C         -6.7207297145        1.2380644452       -1.8425117243
 C         -7.6488791442        0.4184908469       -1.2187727731
 C         -7.3793160182       -0.1313623681        0.0257852043
 C         -6.1732940972        0.1370565073        0.6530483619
 H         -5.9258574733       -0.2657602970        1.6209151661
 H         -8.1036603624       -0.7676393086        0.5081724020
 H         -8.5880280384        0.2074483708       -1.7054026899
 H         -6.9319863041        1.6654938381       -2.8095452673
 H         -4.7577149272        2.1371406608       -1.6691045850
 H         -2.6781234719       -0.2939647746        2.0425298202
 H         -3.6106076646       -0.4453950375       -1.4597100584
 H         -2.0773728365       -1.3167952427       -3.1926980985
 H          0.1786538285       -2.0943173634       -2.5730896757
 H          1.7456143040       -2.6628247433       -0.9962632567
 C          1.3295238362       -3.1183873239        1.0478938061
 C          0.8575726915       -4.5244605980        0.8342556487
 C          2.3136950376       -4.2478492420        1.0548151123
 H          2.7590975301       -4.5357076735        1.9953393027
 H          2.9832259211       -4.3327065801        0.2113552419
 H          0.2998688132       -5.0058654150        1.6226736057
 H          0.5389407618       -4.7964315206       -0.1605658217
 H          1.1102152610       -2.6506610411        1.9988544862
