  62
        -98.94452875
 C          1.4701986914        1.5232636668        0.4227338742
 C          1.6872647924        0.3088763364        1.1197691076
 C          2.8397465367       -0.4892127606        0.6816392553
 C          3.5906692782       -0.0501291020       -0.3449886029
 C          4.7609288064       -0.7863119298       -0.9291100981
 C          4.3240298244       -1.7020325446       -2.0810283160
 C          3.1347414947       -2.5993175986       -1.7382843420
 H          2.2500357223       -1.9765135028       -1.5855046528
 H          2.9391546196       -3.2264513619       -2.6105915778
 C          3.3475947212       -3.4877937716       -0.5050069749
 H          2.9978120807       -4.4958238514       -0.7358441875
 H          4.4120400253       -3.5585104826       -0.2785216590
 C          2.5903040165       -3.0279702034        0.7416701759
 H          2.6283795497       -3.8342989233        1.4784910657
 H          1.5410842634       -2.8588244855        0.4888768618
 C          3.1256537140       -1.7638413173        1.4247281177
 H          2.6179300114       -1.6674087382        2.3887034822
 H          4.1968598059       -1.8675281869        1.6099667984
 H          5.1761670498       -2.3187266943       -2.3729089201
 H          4.0485971812       -1.0775144468       -2.9340567831
 H          5.2422395175       -1.3714139963       -0.1478958526
 H          5.4722970759       -0.0518531990       -1.3106190821
 O          3.3366917449        1.1072082744       -1.0059546288
 C          2.2709308241        1.9208653151       -0.6483104923
 O          2.1596039626        2.9452996867       -1.3471882850
 O          0.9564775785       -0.0848277470        2.0677410507
 C          0.2970000629        2.3935557116        0.8419266327
 C         -0.7498161236        2.3519290126       -0.2434933200
 C         -0.9876520316        3.4048185646       -1.1170905520
 C         -1.9365012830        3.2803314130       -2.1167465290
 C         -2.6812666108        2.1227604781       -2.2461166315
 C         -2.4557573443        1.0646463639       -1.3720694900
 C         -1.4845238294        1.1806933119       -0.3911244590
 H         -1.3002681612        0.3529206993        0.2787666570
 N         -3.1966180094       -0.1233310857       -1.4729445037
 S         -3.7806446298       -0.8503051232       -0.0783394249
 O         -4.9764247078       -1.5446144958       -0.5101614105
 O         -3.9537603901        0.1107645036        0.9850451876
 C         -2.5573029557       -2.0659931985        0.3554647456
 C         -2.2837203143       -3.0613785693       -0.5625740741
 C         -1.3800511803       -4.0543463632       -0.2233418018
 C         -0.7709677783       -4.0367309834        1.0229837984
 C         -1.0509798945       -3.0270156050        1.9304926017
 C         -1.9542400729       -2.0308148253        1.5960905187
 H         -2.1934508781       -1.2274536362        2.2748322320
 H         -0.5646739913       -3.0009797499        2.8921601696
 H         -0.0736421341       -4.8152485229        1.2896807298
 H         -1.1532668045       -4.8386836656       -0.9274611143
 H         -2.7882446463       -3.0459047451       -1.5143329093
 H         -3.8978191682       -0.1166367862       -2.1998520444
 H         -3.4317837991        2.0337861846       -3.0172560140
 H         -2.1062054666        4.1012785508       -2.7970374760
 H         -0.4183372463        4.3146433856       -1.0260792379
 H         -0.1253874912        1.9034686405        1.7307132018
 C          0.7357823550        3.7912050514        1.2222669337
 C         -0.1865679410        4.6564493531        2.0262445767
 C          1.0509377714        4.0924550878        2.6554705151
 H          1.8701635181        4.7613437400        2.8727611147
 H          0.9411680233        3.2903987505        3.3707525452
 H         -0.2191001965        5.7142302113        1.8143343737
 H         -1.1391987997        4.2356978865        2.3120505558
 H          1.3532730401        4.2659291628        0.4695145673
