  62
        -98.94051174
 C         -1.9039508494       -0.8228352703        0.7268624606
 C         -1.9299849896       -0.1946616398       -0.5429815292
 C         -2.3078183602        1.2252999100       -0.5427454886
 C         -2.4983843505        1.8709367995        0.6204193816
 C         -2.8666046211        3.3209855893        0.7819765521
 C         -4.3717327912        3.5979087187        0.6596727122
 C         -4.9408126111        3.4936772090       -0.7560108379
 H         -5.9450550913        3.9210436086       -0.7287245077
 H         -4.3432682413        4.1065184695       -1.4314404276
 C         -5.0292060405        2.0612410192       -1.3007337784
 H         -4.9513660902        1.3516233389       -0.4737444387
 H         -6.0063520104        1.9070934090       -1.7636932185
 C         -3.9715291503        1.7156949800       -2.3492216685
 H         -4.1197723905        2.3339171203       -3.2372117583
 H         -4.1055504099        0.6706931001       -2.6400118289
 C         -2.5249853404        1.8915025004       -1.8675885584
 H         -1.8568110302        1.4146093110       -2.5890230186
 H         -2.2721992108        2.9498847005       -1.8065404880
 H         -4.9065266609        2.9108356783        1.3196157719
 H         -4.5458718216        4.6126282685        1.0248013726
 H         -2.5407791012        3.6139546290        1.7825407423
 H         -2.3215955113        3.9196169698        0.0514521024
 O         -2.3574834203        1.2573053191        1.8270106314
 C         -2.0756334497       -0.0969661008        1.9070426809
 O         -1.9996603496       -0.5323144712        3.0751501407
 H          0.7790970307       -1.0875178294        1.0434717906
 C          0.7980116310       -1.8550391591        0.2814554803
 C         -0.3445668187       -2.6104449994        0.0450839100
 C         -0.3036368482       -3.5915241390       -0.9357599604
 C          0.8498738219       -3.7889969183       -1.6751065704
 C          1.9737217815       -3.0142812979       -1.4592143301
 C          1.9455273411       -2.0362439283       -0.4700139297
 N          3.0835778508       -1.2522706380       -0.2058228794
 S          2.8807205302        0.3229448117        0.3609811412
 O          2.6099061001        0.2747825411        1.7773151812
 O          1.9263752299        1.0442220417       -0.4518012086
 C          4.5282266799        0.9524698825        0.0938826215
 C          5.5247456100        0.5775417826        0.9755858914
 C          6.8165446899        1.0292316932        0.7582321316
 C          7.0894368796        1.8439519837       -0.3308405681
 C          6.0789986294        2.2136915536       -1.2055088080
 C          4.7847160296        1.7636088130       -0.9949425882
 H          3.9653933395        2.0286960929       -1.6439271981
 H          6.2929995292        2.8495556540       -2.0493880178
 H          8.0956087694        2.1946324542       -0.4975900980
 H          7.6039272400        0.7454409732        1.4375846715
 H          5.2619221203       -0.0487785179        1.8120288311
 H          3.7617504208       -1.2866121974       -0.9551125894
 H          2.8652250616       -3.1583212273       -2.0504510901
 H          0.8674631922       -4.5476322880       -2.4429290407
 H         -1.1821070180       -4.1798502193       -1.1436355607
 C         -1.5612429088       -2.2952788002        0.8801022601
 H         -1.2755406688       -2.4096450905        1.9397589300
 C         -2.7301922384       -3.2389253006        0.6404385197
 C         -4.1406683686       -2.7903937813        0.8785030798
 C         -3.6702452885       -3.0755571405       -0.5144036603
 H         -4.0373794481       -3.9654829105       -1.0044431807
 H         -3.4987069688       -2.2470129702       -1.1824780300
 H         -4.8267784484       -3.4812404317        1.3450578795
 H         -4.2933314590       -1.7605318814        1.1685023402
 H         -2.4953866480       -4.2560384906        0.9389572093
 O         -1.6683881093       -0.7768327693       -1.6270221694
