  62
        -98.94436468
 C         -1.8857433037       -1.0500258112       -0.2147218399
 C         -2.4336294191        0.0548838316       -0.9098074032
 C         -3.8902765402        0.2094874340       -0.8042367234
 C         -4.6131943971       -0.6963073459       -0.1207283653
 C         -6.1066481841       -0.6821171915        0.0617653035
 C         -6.5812349030        0.2028316238        1.2226677060
 C         -6.4795511295        1.7087546390        0.9765818502
 H         -6.9692235100        1.9555098744        0.0340457520
 H         -7.0399852237        2.2017119952        1.7734758811
 C         -5.0449512526        2.2554572355        0.9718120118
 H         -4.9999497740        3.1657981755        1.5737992624
 H         -4.3761480785        1.5296193976        1.4399989607
 C         -4.5026122985        2.6030883291       -0.4147587719
 H         -5.0833508133        3.4245790369       -0.8402248872
 H         -3.4692643962        2.9421962836       -0.3037496170
 C         -4.5108742671        1.4329787281       -1.4074362343
 H         -3.9116086763        1.7159400556       -2.2763571786
 H         -5.5286063258        1.2244687890       -1.7366837635
 H         -7.6286544855       -0.0425356268        1.4126462396
 H         -6.0111687302       -0.0595419519        2.1169020460
 H         -6.4045794713       -1.7119611996        0.2700023940
 H         -6.5870782497       -0.3614316754       -0.8628298811
 O         -4.0509181780       -1.7722231580        0.4920557862
 C         -2.6779116753       -1.9592784038        0.4854865562
 O         -2.2904867893       -2.9559758007        1.1286494664
 O         -1.7471259622        0.8708060221       -1.5780039306
 C         -0.3851374180       -1.2776381289       -0.2224575773
 C          0.3315140903       -0.0399519399        0.2598594812
 C         -0.1400412939        0.6133136884        1.3964602508
 C          0.4698853225        1.7627097049        1.8574874104
 C          1.5798676683        2.2757495200        1.2087643572
 C          2.0711635390        1.6223885622        0.0865549119
 C          1.4513975767        0.4690254304       -0.3784195701
 H          1.8477720785       -0.0042291970       -1.2607725523
 N          3.2000868876        2.1134250243       -0.5899731277
 S          4.3981416664        1.0408929222       -1.0481609809
 O          5.5842769256        1.8574046151       -1.1875499702
 O          3.9964832505        0.3056478146       -2.2195468664
 C          4.5639543154       -0.0555932242        0.3489787386
 C          4.1521294170       -1.3679155472        0.2476810745
 C          4.2334619602       -2.1836117506        1.3652882153
 C          4.7203977683       -1.6740944207        2.5586737776
 C          5.1370495815       -0.3540439460        2.6425898601
 C          5.0569689554        0.4659041053        1.5292801211
 H          5.3813432030        1.4935423304        1.5547481620
 H          5.5197708192        0.0370236214        3.5714471524
 H          4.7771350497       -2.3108329143        3.4274513834
 H          3.9129277230       -3.2114355200        1.3015837837
 H          3.7791451294       -1.7246882020       -0.6982738869
 H          3.5952232549        2.9509902550       -0.1880844922
 H          2.0538926508        3.1788921643        1.5618226857
 H          0.0808628128        2.2642242482        2.7308097063
 H         -1.0069982819        0.2131887911        1.9049009590
 H         -0.1962893125       -2.0886063350        0.4964708772
 C          0.0595384947       -1.7332982608       -1.5970293416
 C          1.1948455631       -2.6990025552       -1.7463045374
 C         -0.2097325846       -3.1464538226       -2.0156170363
 H         -0.5089310771       -3.3341058245       -3.0359202276
 H         -0.6878264970       -3.7927787009       -1.2936724041
 H          1.8690710766       -2.5773724538       -2.5815293549
 H          1.6649428426       -3.0559175601       -0.8424034142
 H         -0.0587770116       -0.9623424302       -2.3504231272
