  62
        -98.93573410
 C         -1.6792000549       -0.5468303341       -0.1556374508
 C         -2.7994050046       -1.3301731986        0.2192103810
 C         -4.1250907904       -0.8403123570       -0.1969069861
 C         -4.2055657519        0.3137813522       -0.8805970105
 C         -5.4478878767        1.0115630246       -1.3614333716
 C         -5.9204934201        2.0529410592       -0.3329945445
 C         -6.8476561427        1.5097936929        0.7536558071
 H         -6.9997385768        2.3107233857        1.4808728070
 H         -7.8197609821        1.2790437287        0.3128054598
 C         -6.3365500550        0.2679737790        1.4887435304
 H         -5.2749117407        0.3853962578        1.7135994120
 H         -6.8636072373        0.2031020370        2.4426035596
 C         -6.5643322122       -1.0335945770        0.7056281432
 H         -7.2437984749       -0.8365113606       -0.1233572392
 H         -7.0646926681       -1.7599952906        1.3494036248
 C         -5.2914596589       -1.7127868557        0.1798941104
 H         -4.8955166621       -2.3863643767        0.9464835132
 H         -5.5511323472       -2.3389992949       -0.6804143745
 H         -5.0328433422        2.4960719415        0.1260280763
 H         -6.4477512117        2.8510571863       -0.8596405235
 H         -5.1745958280        1.5317558867       -2.2820217913
 H         -6.2319495468        0.2940227501       -1.5844647429
 O         -3.1084790650        1.0571562779       -1.1884899657
 C         -1.8251925310        0.6643919570       -0.8334731075
 O         -0.9431889067        1.4728425250       -1.1757276944
 H          1.8766788968        0.3009146522       -0.7570566948
 C          1.6006402138        0.6183079433        0.2338111875
 C          0.5054149462        0.0590844357        0.8719264345
 C          0.1404354337        0.5464656329        2.1243894622
 C          0.8501765703        1.5722917689        2.7173936738
 C          1.9516937786        2.1201055625        2.0832796841
 C          2.3216266767        1.6432704568        0.8316809565
 N          3.4287031819        2.1804597519        0.1637854914
 S          4.3649161697        1.2369126774       -0.8397274533
 O          5.6520377091        1.9010054635       -0.8521172520
 O          3.7396758694        1.0670872168       -2.1267573507
 C          4.5102055546       -0.3427699793       -0.0202204707
 C          4.9491147522       -0.3731240896        1.2887477242
 C          5.0642483382       -1.5961062997        1.9291693498
 C          4.7445509486       -2.7635644328        1.2529196561
 C          4.3141044820       -2.7178334621       -0.0637815019
 C          4.1939440124       -1.4964188359       -0.7076677861
 H          3.8561884054       -1.4139640181       -1.7285507857
 H          4.0682369724       -3.6266328204       -0.5900363438
 H          4.8323536621       -3.7148802547        1.7534508878
 H          5.4011832251       -1.6355481340        2.9524123087
 H          5.1982051912        0.5498512529        1.7861251818
 H          3.9696378719        2.8547259656        0.6831846355
 H          2.5094564802        2.9210472401        2.5440727412
 H          0.5502226419        1.9454782788        3.6849921391
 H         -0.7183879530        0.1163338213        2.6214211901
 C         -0.3071708597       -1.0502173879        0.2564799897
 H         -0.5171023863       -1.7936870640        1.0433747208
 C          0.4449519765       -1.7857621149       -0.8423762899
 C         -0.2824119378       -2.6058982863       -1.8639602177
 C          0.4174688618       -1.3464633249       -2.2741760054
 H          1.3270149098       -1.4211176781       -2.8530619153
 H         -0.1762511956       -0.4807794956       -2.5239508193
 H          0.1420425315       -3.5526943983       -2.1615665331
 H         -1.3622511338       -2.6008623646       -1.8326802157
 H          1.3850149742       -2.1903660434       -0.4787330079
 O         -2.6970837366       -2.3956912005        0.8842490485
