  62
        -98.93947727
 C         -2.5574106010        0.1343007433        0.5328835407
 C         -2.3042100869        0.8752866513       -0.6460596629
 C         -1.6949009641        2.1977594321       -0.4563326683
 C         -1.3782215582        2.6113167326        0.7831962756
 C         -0.7065374994        3.9078900694        1.1473789015
 C          0.7383531498        4.0513248101        0.6286294030
 C          0.8562656934        4.8403648460       -0.6818677261
 H         -0.0199547221        5.4818471506       -0.7850083553
 H          1.7231701871        5.5011068852       -0.6174291471
 C          1.0248923350        4.0011663934       -1.9522345544
 H          0.8247553053        4.6493539805       -2.8087545665
 H          2.0632002147        3.6700259443       -2.0235452703
 C          0.1438062867        2.7550793903       -2.0566466098
 H          0.2073533978        2.3783894764       -3.0800477508
 H          0.5388381772        1.9650080171       -1.4139227528
 C         -1.3360690066        2.9775862266       -1.6881114338
 H         -1.5446355758        4.0370938620       -1.5455594876
 H         -1.9752591718        2.6019538419       -2.4900317058
 H          1.1764865863        3.0579420134        0.5203029420
 H          1.3068666395        4.5747148798        1.3992306218
 H         -1.3139756825        4.7402368385        0.7849537150
 H         -0.7046740101        3.9435701218        2.2386587744
 O         -1.6562960600        1.8761536783        1.8955909586
 C         -2.2231555831        0.6175589261        1.7964806178
 O         -2.3894263497        0.0390247388        2.8921787044
 H         -0.4586300018       -1.3253881282        0.9386856112
 C         -0.6871739545       -1.9375828175        0.0769309335
 C         -2.0087985425       -2.0835621859       -0.3278449750
 C         -2.2827129356       -2.8963485705       -1.4187579688
 C         -1.2487441127       -3.5082790273       -2.1080761320
 C          0.0685204345       -3.3110156778       -1.7385839295
 C          0.3504380783       -2.5179566377       -0.6304141199
 N          1.6736369643       -2.3057880029       -0.2065794932
 S          2.0468436080       -0.8555886374        0.5742537444
 O          1.7423148603       -0.9982843466        1.9769846562
 O          1.4424779762        0.2664538105       -0.1064109416
 C          3.8158665005       -0.8275763321        0.3508722975
 C          4.3652550438       -0.0312593187       -0.6357397786
 C          5.7394981403       -0.0413415917       -0.8179395877
 C          6.5356972405       -0.8464454029       -0.0174948949
 C          5.9697650378       -1.6406838625        0.9690978019
 C          4.5969544577       -1.6335485385        1.1578093287
 H          4.1122010283       -2.2241228374        1.9176708652
 H          6.5920095365       -2.2634290172        1.5912581457
 H          7.6044877560       -0.8529561502       -0.1615315073
 H          6.1818485854        0.5775904244       -1.5817350228
 H          3.7059154152        0.5809527682       -1.2302209783
 H          2.3581516594       -2.5426021105       -0.9115768572
 H          0.8728384595       -3.7634367667       -2.2982703032
 H         -1.4728797976       -4.1302212351       -2.9614734407
 H         -3.3014200120       -3.0349262841       -1.7415842400
 C         -3.0528057827       -1.2990505468        0.4323066224
 H         -3.0919292383       -1.6820688370        1.4629426347
 C         -4.4371772427       -1.3681576217       -0.1735500582
 C         -5.3399711427       -2.5200350000        0.1485235083
 C         -5.6263641057       -1.1623501200        0.7139897360
 H         -6.4675155792       -0.6069797686        0.3274564632
 H         -5.4362018002       -0.9920830769        1.7640066281
 H         -5.9901897967       -2.8980818972       -0.6257408048
 H         -4.9626502342       -3.2774939974        0.8189016347
 H         -4.4763282509       -0.9449117755       -1.1702056243
 O         -2.5719284637        0.4555536503       -1.8028505011
