  62
        -98.94513199
 C         -0.9888449315       -1.2469574392        0.4683772707
 C         -1.5563950712       -0.7478483695       -0.7313206496
 C         -2.3969220704        0.4514013911       -0.5869359202
 C         -2.5611623800        1.0237882119        0.6181593995
 C         -3.3488921592        2.2724066425        0.9099224389
 C         -4.8538552894        2.0340743636        1.0933771991
 C         -5.6231628896        1.7107990434       -0.1879677707
 H         -6.6863838996        1.7825377342        0.0497936593
 H         -5.4064059492        2.4685485929       -0.9417117011
 C         -5.3392608705        0.3158136629       -0.7624809500
 H         -4.8714993609       -0.3061882170        0.0040225303
 H         -6.2816026009       -0.1651220466       -1.0340305198
 C         -4.4538811206        0.3114649717       -2.0091554401
 H         -4.2859842912       -0.7263108685       -2.3085187095
 H         -4.9695550203        0.8183558616       -2.8279728403
 C         -3.0839840401        0.9736434110       -1.8117645404
 H         -3.1925265295        2.0572346910       -1.7559649810
 H         -2.4529474103        0.7354492201       -2.6723600203
 H         -4.9937426099        1.2263840440        1.8153713395
 H         -5.2768063188        2.9440263241        1.5251154286
 H         -3.1872766088        3.0006605820        0.1141241485
 H         -2.9508263190        2.6827517327        1.8405829187
 O         -1.9878060203        0.5240560321        1.7448393398
 C         -1.2058144011       -0.6194285685        1.6977595503
 O         -0.7631580213       -0.9759235682        2.8077931205
 O         -1.3837829716       -1.2512988402       -1.8719804293
 C         -0.0852512223       -2.4648138598        0.5252005113
 C          1.3604927379       -2.1209955508        0.2443237910
 C          2.3800393275       -2.8433571412        0.8567398014
 C          3.7060512477       -2.5555230222        0.5935040612
 C          4.0441150783       -1.5262500228       -0.2674014593
 C          3.0343687187       -0.7952651925       -0.8801022597
 C          1.7036613486       -1.1026427915       -0.6309642495
 H          0.9392412289       -0.5367991813       -1.1387385198
 N          3.3368355994        0.2699080369       -1.7454646902
 S          2.4807557203        1.6963196875       -1.5654330310
 O          1.1845167902        1.5995411480       -2.1840473909
 O          3.3619064310        2.7104130667       -2.1063712815
 C          2.3218231205        1.9107100085        0.1982626489
 C          3.4740328506        2.0903109182        0.9388379288
 C          3.3726424008        2.2257902589        2.3132417487
 C          2.1270069008        2.1793217400        2.9208806688
 C          0.9794292406        2.0068450404        2.1634524489
 C          1.0761185505        1.8674076296        0.7879012790
 H          0.2064248704        1.7209685499        0.1649722591
 H          0.0119336406        1.9584598713        2.6376762790
 H          2.0450744608        2.2771523106        3.9917742388
 H          4.2616060809        2.3636569687        2.9072057187
 H          4.4239203407        2.1347843973        0.4314419088
 H          4.3245097695        0.4528174462       -1.8522258104
 H          5.0782076584       -1.2900465036       -0.4657102595
 H          4.4856144173       -3.1268281424        1.0732743715
 H          2.1257024770       -3.6314540507        1.5487177418
 H         -0.1401227925       -2.8295513492        1.5608695714
 C         -0.5283894630       -3.5857825600       -0.3977316682
 C         -0.2860536439       -5.0121661399       -0.0106863874
 C         -1.6783173236       -4.4575516690        0.0043001823
 H         -2.3751482538       -4.7723465390       -0.7577723475
 H         -2.1390862634       -4.2627114682        0.9621871322
 H         -0.0206141344       -5.7150547705       -0.7853065371
 H          0.1853272360       -5.2063444097        0.9404583326
 H         -0.4477444029       -3.3267424305       -1.4456769383
