  62
        -98.93986077
 C         -1.8440472800       -1.0034202402        0.5027673693
 C         -2.4122673799        0.1087869095        1.1763138299
 C         -3.8674889499        0.2591051395        1.0755056603
 C         -4.5841474901       -0.6544255503        0.3964211201
 C         -6.0793212401       -0.6630859102        0.2281864005
 C         -6.5833155804        0.2195446302       -0.9216785590
 C         -6.5038209304        1.7253534301       -0.6676957584
 H         -7.0840541706        2.2140757204       -1.4528824280
 H         -6.9831463202        1.9581488897        0.2836881318
 C         -5.0784302704        2.2954883402       -0.6808653785
 H         -4.4039128205        1.5828600204       -1.1612978490
 H         -5.0564562406        3.2088756704       -1.2796372081
 C         -4.5224329901        2.6466738496        0.6994016015
 H         -3.4967571801        3.0043687097        0.5749312114
 H         -5.1103284800        3.4570031394        1.1365106320
 C         -4.4970712698        1.4733921592        1.6879259210
 H         -5.5068771097        1.2479876390        2.0307251112
 H         -3.8905381196        1.7639201489        2.5493928810
 H         -6.0203062406       -0.0276957394       -1.8245274392
 H         -7.6289119105       -0.0424145697       -1.0991978788
 H         -6.5541270799       -0.3549223806        1.1601188608
 H         -6.3622455401       -1.6968024402        0.0181789102
 O         -4.0083889202       -1.7197335500       -0.2163901805
 C         -2.6295479202       -1.9087439899       -0.2128227109
 O         -2.2653999303       -2.9033457596       -0.8648517114
 O         -1.7305815797        0.9335690792        1.8433666501
 C         -0.3348328400       -1.1498227402        0.5905944488
 C          0.3313146197       -0.4185391497       -0.5468776710
 C         -0.0384653006       -0.6607852592       -1.8672543710
 C          0.5638602991        0.0312095713       -2.9010674509
 C          1.5477409191        0.9695666412       -2.6417140608
 C          1.9212918194        1.2221517407       -1.3269266008
 C          1.3155987297        0.5244672502       -0.2890027609
 H          1.5945450300        0.7523931798        0.7288470691
 N          2.9024070195        2.1784041506       -1.0414786706
 S          3.9152116398        2.0290872601        0.2716632791
 O          3.2255489801        2.3721507896        1.4896608294
 O          5.0527017897        2.8594152303       -0.0629252409
 C          4.4221588899        0.3182523401        0.3228790982
 C          4.4746471802       -0.3247042904        1.5429948079
 C          4.9107639303       -1.6397078804        1.5927910073
 C          5.2782804300       -2.2892484899        0.4247829369
 C          5.2183406197       -1.6307936894       -0.7936840528
 C          4.7926992396       -0.3133607094       -0.8481259021
 H          4.7462480894        0.2217947510       -1.7822672419
 H          5.5011844395       -2.1394830590       -1.7009996031
 H          5.6092524401       -3.3146428599        0.4645941964
 H          4.9544790206       -2.1523416308        2.5402565271
 H          4.1650216504        0.2127050492        2.4253371882
 H          3.3592481093        2.5901464010       -1.8408809106
 H          2.0138724789        1.5135644016       -3.4490047807
 H          0.2669136288       -0.1635602983       -3.9205262509
 H         -0.8034027907       -1.3953066291       -2.0692778312
 H         -0.0574356098       -0.6263511206        1.5198938190
 C          0.1269014501       -2.5940531102        0.7260310481
 C          0.9219541699       -3.3124444398       -0.3190504724
 C          1.5795470902       -2.8876070203        0.9569335276
 H          1.8469111004       -3.6411937506        1.6815957572
 H          2.2630612501       -2.0528644802        0.9123916878
 H          0.7073245799       -4.3586545997       -0.4729939428
 H          1.1754444496       -2.7829316394       -1.2233261022
 H         -0.5858133097       -3.1948988905        1.2812847680
