  62
        -98.93581106
 C         -2.3757034547       -0.4438119529        0.9110552256
 C         -3.4230139731       -1.0745593494        0.1932066028
 C         -4.7360078280       -0.4093636960        0.2610711521
 C         -4.8739767546        0.7239566299        0.9706821367
 C         -6.1355233401        1.5312059595        1.0671691198
 C         -6.1940490562        2.6039538053       -0.0294500808
 C         -5.8935245681        2.0720221118       -1.4307905499
 H         -5.9938951261        2.9094508744       -2.1246436546
 H         -4.8519648878        1.7447712218       -1.4713673512
 C         -6.8044978431        0.9217983901       -1.8819939632
 H         -7.1254116533        1.1113272738       -2.9084602510
 H         -7.7013550650        0.8945720708       -1.2621146065
 C         -6.1391733593       -0.4555973837       -1.8705531477
 H         -6.7897405046       -1.1520922840       -2.4060961192
 H         -5.1920070813       -0.4094777645       -2.4136912254
 C         -5.8704779496       -1.0550749396       -0.4845090506
 H         -6.7852487680       -1.0308002663        0.1109597189
 H         -5.5786844478       -2.0998219054       -0.6261399621
 H         -7.1866677546        3.0577919602       -0.0152617583
 H         -5.4617085018        3.3796359457        0.2062729022
 H         -6.1566271002        2.0197099990        2.0427819016
 H         -6.9931040470        0.8661552944        0.9859118372
 O         -3.8479178173        1.2968813539        1.6518104532
 C         -2.5841315002        0.7342211966        1.6335475195
 O         -1.7371938341        1.3637888145        2.3008398766
 O         -3.2934455776       -2.1306502065       -0.4756250883
 C         -0.9569105277       -0.9850006568        0.9597515343
 C         -0.1236329646       -0.4759862533       -0.1881154079
 C         -0.5978776833       -0.4851062865       -1.4961749388
 C          0.2018125589       -0.0413004525       -2.5335418334
 C          1.4922196996        0.3965422664       -2.2925568565
 C          1.9730648083        0.4148529695       -0.9887161921
 C          1.1585965118       -0.0065378024        0.0532509328
 H          1.5402738526        0.0312070544        1.0632148926
 N          3.2723880022        0.8609952226       -0.7023338331
 S          4.1157567597        0.0617831880        0.5254843400
 O          3.8628346801       -1.3587409758        0.4479565818
 O          3.8141239185        0.6958554657        1.7842683127
 C          5.7987343472        0.4188060955        0.0582390481
 C          6.3493167317        1.6318850039        0.4267705005
 C          7.6474522590        1.9229264357        0.0386455230
 C          8.3685125919        1.0025408562       -0.7077385482
 C          7.8029744972       -0.2112093796       -1.0685325728
 C          6.5048203692       -0.5086534935       -0.6845346471
 H          6.0273246823       -1.4427196031       -0.9335101761
 H          8.3673235400       -0.9258491075       -1.6455869399
 H          9.3790070441        1.2315630834       -1.0072491890
 H          8.0917049478        2.8639980582        0.3200265680
 H          5.7537377994        2.3107065828        1.0148129228
 H          3.8377062304        0.9928698611       -1.5298702700
 H          2.1197237680        0.7278603723       -3.1059504095
 H         -0.1781590835       -0.0528347268       -3.5441224122
 H         -1.5919265773       -0.8576059675       -1.6913993813
 H         -0.5209747361       -0.5711332010        1.8842179831
 C         -0.8971519601       -2.5025744105        1.0819811109
 C         -0.4716652982       -3.4088331878       -0.0294679781
 C          0.4293536761       -3.2013720995        1.1484843241
 H          0.5500041939       -4.0074035181        1.8569586692
 H          1.3226920560       -2.6095682058        1.0040905449
 H         -0.9900686859       -4.3497284989       -0.1323752942
 H         -0.1902638093       -2.9632184293       -0.9703602666
 H         -1.6755829704       -2.8814638937        1.7372271552
