  62
        -98.93868189
 C          1.4675825151        0.7724003071       -0.5248861290
 C          2.6408793107        0.9612839119        0.2498667754
 C          3.4140052828       -0.2394580739        0.6017588038
 C          2.9726145867       -1.4428875518        0.1987155968
 C          3.5612025270       -2.8038066112        0.4766956757
 C          5.0861759251       -2.9499629467        0.3866082224
 C          5.7604999223       -2.0658432516       -0.6727379532
 H          6.4044161383       -2.6885435782       -1.2964773858
 H          5.0056233688       -1.6219919678       -1.3239444556
 C          6.6242159533       -0.9585412577       -0.0641986691
 H          7.1946698894       -1.3768693273        0.7679201432
 H          7.3418895263       -0.6200250133       -0.8153138617
 C          5.8624653746        0.2740056984        0.4214513324
 H          6.5726575934        0.9289598718        0.9318277464
 H          5.4721554018        0.8301945638       -0.4350280207
 C          4.6841542123       -0.0059735689        1.3686650899
 H          4.5126627662        0.8927952179        1.9674324968
 H          4.9051609378       -0.8319143590        2.0406863176
 H          5.5297953524       -2.7412170759        1.3591147609
 H          5.2888054625       -3.9999142129        0.1683243672
 H          3.0856114376       -3.4714629862       -0.2460073846
 H          3.2267836877       -3.1185922936        1.4699509172
 O          1.8390079002       -1.5836369881       -0.5400396839
 C          1.0556807912       -0.5014941812       -0.9122023954
 O          0.0600888761       -0.8269346231       -1.5877682247
 O          3.0283488667        2.0974428936        0.6351097201
 C          0.6700251011        2.0247373528       -0.8508511448
 C         -0.3624793466        2.2621080181        0.2267072404
 C         -0.3119211291        3.4050452456        1.0150590158
 C         -1.2335603529        3.5995863652        2.0284254509
 C         -2.2068856932        2.6516174942        2.2812073632
 C         -2.2673087695        1.5026763169        1.4971429423
 C         -1.3614120064        1.3265072090        0.4619846459
 H         -1.4029834260        0.4315695765       -0.1357457439
 N         -3.2548899059        0.5415807048        1.7405316402
 S         -3.0459139123       -1.0978753425        1.4614066699
 O         -3.8790783064       -1.7289290122        2.4665005947
 O         -1.6527997052       -1.4734290706        1.4671341107
 C         -3.8143915784       -1.3419156019       -0.1261758045
 C         -5.1954958966       -1.2835821663       -0.1639779007
 C         -5.8440563844       -1.4514293161       -1.3753683608
 C         -5.1038521776       -1.6740494768       -2.5273751923
 C         -3.7206696233       -1.7318141111       -2.4720389440
 C         -3.0634626830       -1.5653922537       -1.2611769678
 H         -1.9862817557       -1.5992583903       -1.1998684776
 H         -3.1389556275       -1.9031145676       -3.3639554306
 H         -5.6065401635       -1.8045210355       -3.4728404702
 H         -6.9203772146       -1.4085746201       -1.4194977695
 H         -5.7306990797       -1.1225957157        0.7570625599
 H         -3.8165020488        0.7090639702        2.5619591858
 H         -2.9146818003        2.7914190658        3.0841883316
 H         -1.1843684497        4.4899421124        2.6368400657
 H          0.4696966236        4.1305108853        0.8443811021
 H          1.3950646745        2.8490099370       -0.7993604139
 C          0.0350269192        2.0323769092       -2.2259147748
 C         -0.3176794372        3.3479975863       -2.8507548481
 C          0.8218089488        2.5408349753       -3.3949291178
 H          0.7014365898        2.0486885786       -4.3481321638
 H          1.8279712780        2.8872996851       -3.2078179974
 H         -1.2246336524        3.4137139509       -3.4315015042
 H         -0.0835469615        4.2443222695       -2.2966404240
 H         -0.6292760146        1.1971159610       -2.4013169888
