  62
        -98.94100808
 C         -2.0354340980        0.7486697242        0.3855897499
 C         -3.1845814348        1.2823654601       -0.2551022697
 C         -4.4580657877        0.6017856226        0.0110361891
 C         -4.4685233406       -0.4797800028        0.8105669567
 C         -5.6831925340       -1.3030540796        1.1249960593
 C         -5.8461903189       -2.4570532628        0.1259855411
 C         -5.7389132898       -2.0270448251       -1.3370989459
 H         -4.7207671144       -1.6829630155       -1.5335332708
 H         -5.9000457111       -2.9167692453       -1.9496905538
 C         -6.7328601983       -0.9332721087       -1.7523208617
 H         -7.5463474497       -0.8778250232       -1.0280204678
 H         -7.1731515671       -1.2072002702       -2.7134074671
 C         -6.1133296744        0.4546966881       -1.9257568692
 H         -5.2399368633        0.3867930589       -2.5791695857
 H         -6.8463222383        1.0938313131       -2.4251930134
 C         -5.6936945067        1.1652093907       -0.6327632644
 H         -5.4540477667        2.2018176737       -0.8872931364
 H         -6.5276131780        1.1686386366        0.0722398269
 H         -6.8153764467       -2.9286458039        0.2986391352
 H         -5.0677656665       -3.1980074559        0.3228413699
 H         -5.5682550672       -1.7167796080        2.1283691483
 H         -6.5639485224       -0.6639460247        1.1049431700
 O         -3.3485477201       -0.9773167892        1.3897790447
 C         -2.1028409019       -0.3901260883        1.1906105864
 O         -1.1788736664       -0.9757803811        1.7837399197
 H          1.3337527172        0.3385805857        1.5725234765
 C          1.3061344037       -0.0269823869        0.5580123061
 C          0.3261573212        0.4293677435       -0.3094956864
 C          0.2935558368       -0.0786641887       -1.6045987887
 C          1.2119972031       -1.0261140760       -2.0168126885
 C          2.1796181889       -1.4904378825       -1.1437506240
 C          2.2177448903       -0.9925438240        0.1518677174
 N          3.1927323652       -1.4678152142        1.0462066339
 S          4.7841613367       -1.4900425578        0.5363577957
 O          4.9980963949       -2.6075637201       -0.3487673976
 O          5.5742761241       -1.4790977972        1.7470519925
 C          4.9863286902        0.0407304407       -0.3565061511
 C          5.0802258059        0.0331365091       -1.7330214544
 C          5.1681895847        1.2423482821       -2.4046028864
 C          5.1575695427        2.4310541618       -1.6920646670
 C          5.0671161751        2.4219242158       -0.3082661956
 C          4.9767744724        1.2165273587        0.3679205233
 H          4.9122247997        1.1691178963        1.4431867165
 H          5.0624279459        3.3482795055        0.2435585624
 H          5.2217957177        3.3710437403       -2.2170972537
 H          5.2409879416        1.2529515032       -3.4801527522
 H          5.0883274523       -0.9127837416       -2.2489231736
 H          3.1069203412       -1.0918498138        1.9785705449
 H          2.8946035208       -2.2408984359       -1.4398463191
 H          1.1722237327       -1.4117266273       -3.0242723757
 H         -0.4698121182        0.2738794263       -2.2845714700
 C         -0.7098693780        1.4389640016        0.1112358695
 H         -0.9210657528        2.0886113706       -0.7535558317
 C         -0.2272437941        2.3550191920        1.2262943540
 C         -1.2033042725        3.1750858477        2.0143488280
 C         -0.4441235785        2.0689865910        2.6808561593
 H          0.3406693100        2.3348355868        3.3746109153
 H         -0.9722317285        1.1673418277        2.9482544858
 H         -2.2542088559        3.0234971795        1.8150169535
 H         -0.9464392554        4.1958617165        2.2539085313
 H          0.7083351452        2.8402497905        0.9644181992
 O         -3.1458112867        2.2853227893       -1.0163212008
