  62
        -98.94506475
 C          1.8542735951        1.2692035578       -0.0448718720
 C          3.0617234581        0.9010925497        0.5949738739
 C          3.8243696488       -0.1774311427       -0.0443416723
 C          3.3613443113       -0.7440925529       -1.1735414526
 C          4.0369912808       -1.8373247958       -1.9564943143
 C          3.7637434474       -3.2512185998       -1.4251881125
 C          4.4687089234       -3.6023177133       -0.1142788257
 H          5.5335170607       -3.3860692432       -0.2060422947
 H          4.3661210011       -4.6802543330        0.0260600231
 C          3.9017211834       -2.8886315431        1.1210351386
 H          3.7741083778       -3.6093287624        1.9321200966
 H          2.9099780942       -2.4923776995        0.8888789237
 C          4.7764047318       -1.7542211806        1.6553491780
 H          5.7236798170       -2.1617206054        2.0151201392
 H          4.2632509226       -1.2964460294        2.5051835414
 C          5.0755734866       -0.6514081225        0.6314110997
 H          5.7953596455       -1.0076269462       -0.1052732937
 H          5.5092781004        0.1996061112        1.1623840718
 H          4.0960406508       -3.9564694073       -2.1904132333
 H          2.6851997777       -3.3788546445       -1.3040147742
 H          5.1124411268       -1.6590840819       -1.9804526376
 H          3.6511863264       -1.7732266819       -2.9761877293
 O          2.1969312067       -0.3602658956       -1.7606019727
 C          1.4099935742        0.6470201330       -1.2122470177
 O          0.3648832361        0.8780667996       -1.8453214618
 O          3.4821650243        1.4479098579        1.6504978193
 C          1.0206179422        2.3838688735        0.5554279846
 C         -0.3874175824        1.9396075251        0.8715060877
 C         -1.4603112755        2.8242900116        0.8589414809
 C         -2.7371763833        2.3909066207        1.1707947363
 C         -2.9800400312        1.0656409620        1.4813454050
 C         -1.9181145423        0.1705596898        1.4817228150
 C         -0.6343509534        0.6145722018        1.2023025667
 H          0.1872747619       -0.0910828441        1.2201225418
 N         -2.1600924692       -1.1889984471        1.7395977820
 S         -3.4869026284       -1.8922156913        0.9951940473
 O         -4.6477233911       -1.7202424880        1.8346280787
 O         -3.0966834703       -3.2638072385        0.7478877690
 C         -3.7370133355       -1.0183686760       -0.5419384887
 C         -5.0022584904       -0.5620134256       -0.8542192763
 C         -5.1932024384        0.1275715920       -2.0405054912
 C         -4.1181259242        0.3603814253       -2.8846055597
 C         -2.8540027497       -0.1054396680       -2.5582632551
 C         -2.6612198677       -0.8087638952       -1.3807450227
 H         -1.6798005214       -1.1679505961       -1.1146058917
 H         -2.0034726192        0.0906118739       -3.1912656326
 H         -4.2627458472        0.9107318147       -3.8008685681
 H         -6.1756772140        0.4895164755       -2.2976220370
 H         -5.8049061928       -0.7482786489       -0.1590885438
 H         -1.3435937950       -1.7747046230        1.6445436824
 H         -3.9688227515        0.7083108745        1.7203501847
 H         -3.5567204954        3.0926264473        1.1633911754
 H         -1.2940928031        3.8577278354        0.6031658043
 H          1.5177930659        2.6398551293        1.5039599025
 C          1.0563587949        3.5995040897       -0.3517492599
 C          1.0846727187        4.9839721234        0.2217196946
 C          2.3134967744        4.4126141560       -0.4169911763
 H          2.6302191324        4.7994334593       -1.3739238942
 H          3.1301472155        4.1108030346        0.2228113574
 H          0.5568394943        5.7684932425       -0.2994058947
 H          1.0767954658        5.0829792094        1.2968192030
 H          0.5162967961        3.4388480765       -1.2781205462
