  62
        -98.93519776
 C         -2.3669653185       -0.6832751151       -0.1409602900
 C         -1.3982271184       -0.7665554530        0.8857938901
 C         -0.6370884257       -2.0209450614        0.9561792702
 C         -0.8894901236       -2.9938159420        0.0628044003
 C         -0.1056853609       -4.2672145404       -0.0789437495
 C          1.2091832485       -3.9758935876       -0.8321611795
 C          2.4751351389       -4.1881732249       -0.0008722694
 H          2.6645398212       -5.2601972645        0.0915306007
 H          3.3042559380       -3.7513097332       -0.5622178094
 C          2.4567648175       -3.5888539248        1.4088183206
 H          1.9100636989       -4.2522543159        2.0810538006
 H          3.4905640175       -3.5698186826        1.7600260306
 C          1.8705774945       -2.1757688761        1.5245273504
 H          1.9328373035       -1.6555224460        0.5675757804
 H          2.4767146833       -1.6094654147        2.2351363804
 C          0.4138129744       -2.1300639291        2.0255810703
 H          0.2114509062       -3.0026006595        2.6526932904
 H          0.2829986525       -1.2383862693        2.6449609602
 H          1.2705596299       -4.6120236676       -1.7172198294
 H          1.1786257663       -2.9438711077       -1.1914625296
 H          0.0984831899       -4.6897817198        0.9023981605
 H         -0.7192792794       -4.9698599717       -0.6436084995
 O         -1.8518132138       -2.8905627641       -0.8910032998
 C         -2.5910944962       -1.7287121257       -1.0331835799
 O         -3.4113590961       -1.7485907275       -1.9762148200
 H         -1.0103303312        0.6384816576       -1.8129625900
 C         -1.0614237231        1.5431402175       -1.2234416901
 C         -2.1446952936        1.7451637253       -0.3682642802
 C         -2.1738543762        2.9311196353        0.3538510997
 C         -1.1441604781        3.8534107075        0.2461346397
 C         -0.0457279175        3.6118648497       -0.5551303902
 C         -0.0058638450        2.4333315298       -1.2912026401
 N          1.1035004958        2.0975533520       -2.0986208100
 S          2.0025431685        0.7699477440       -1.6033956498
 O          3.0795124088        0.6635089062       -2.5652260397
 O          1.1500427410       -0.3833169778       -1.4756363698
 C          2.6769986374        1.2581358955       -0.0247704798
 C          3.9951106065        1.6704891883        0.0265073002
 C          4.5149955155        2.1142005895        1.2312603002
 C          3.7077878154        2.1480136479        2.3586016602
 C          2.3864970762        1.7356452451        2.2883132901
 C          1.8589400073        1.2862203639        1.0869202601
 H          0.8346722580        0.9547401317        1.0191361401
 H          1.7512761061        1.7583493738        3.1593437601
 H          4.1097573346        2.4964533988        3.2969275702
 H          5.5433000648        2.4333984717        1.2864127203
 H          4.5833252367        1.6249024695       -0.8758450397
 H          1.7337958241        2.8716813334       -2.2609937700
 H          0.7711413110        4.3157183515       -0.6087874402
 H         -1.1922987601        4.7656705674        0.8210340197
 H         -2.9813917267        3.1541156737        1.0264609497
 C         -3.1455188512        0.6114473932       -0.3556477001
 H         -3.5510037810        0.5385944923       -1.3796933502
 C         -4.3510614213        0.5986850007        0.5723632198
 C         -4.3662169024        1.1050762308        1.9799732197
 C         -5.2003144138        1.7813689490        0.9309949196
 H         -6.2693156235        1.6296271967        0.9658906496
 H         -4.9190684158        2.7559447295        0.5682562196
 H         -3.4736744234        1.5807863827        2.3515015198
 H         -4.8706912412        0.5044108298        2.7230848598
 H         -4.8979909893       -0.3271459104        0.4021933298
 O         -1.1646676204        0.1685194675        1.6954970800
