  62
        -98.94480911
 C          1.9930792644        1.3613181952        0.2966334728
 C          2.6428257221        0.7647587389       -0.8111874437
 C          3.8112370580       -0.0651472423       -0.4902879821
 C          4.2028891820       -0.2073162748        0.7889760371
 C          5.3910456676       -0.9959022909        1.2693308850
 C          5.1154388726       -2.4948786146        1.4506470021
 C          4.9636381044       -3.2901475230        0.1532882656
 H          5.8199469687       -3.0957646978       -0.4931572928
 H          4.9910574873       -4.3483794892        0.4207142311
 C          3.6634770407       -3.0087974686       -0.6133360732
 H          2.9470476344       -2.5184030336        0.0502205263
 H          3.2117088906       -3.9532350048       -0.9254318082
 C          3.8392661908       -2.1540025953       -1.8686749627
 H          4.4436473163       -2.6966841187       -2.5988920873
 H          2.8524147778       -1.9839037598       -2.3074062185
 C          4.4881011721       -0.7866952041       -1.6159793205
 H          5.5514381521       -0.9065658361       -1.4096941660
 H          4.3706348046       -0.1807017265       -2.5175982754
 H          4.2151649406       -2.6143379683        2.0581562623
 H          5.9528015570       -2.9145630709        2.0128246477
 H          6.2241705835       -0.8590530707        0.5795066351
 H          5.6699154143       -0.5780555983        2.2391196397
 O          3.5494450905        0.3836586906        1.8251670297
 C          2.4191742580        1.1565502161        1.6081184315
 O          1.8889575263        1.5961246514        2.6496266728
 H         -0.0905970400       -0.1756745827        0.7926677018
 C         -0.6302834924        0.1782189459       -0.0777715270
 C         -0.3147504082        1.4251042036       -0.6050972823
 C         -1.0272396280        1.8756746078       -1.7079091221
 C         -2.0024623578        1.0800236047       -2.2857114683
 C         -2.2963360913       -0.1693308158       -1.7730952796
 C         -1.6053310590       -0.6199858246       -0.6545999062
 N         -1.9151909168       -1.8777680768       -0.1095356202
 S         -3.5332799729       -2.2660012156        0.0761607827
 O         -3.5766176731       -3.1863851573        1.1909021580
 O         -4.0577480771       -2.7652617674       -1.1704884078
 C         -4.3398983526       -0.7307525510        0.4965701389
 C         -5.3198209036       -0.2179622933       -0.3286665694
 C         -5.9086625979        0.9921869526        0.0016648409
 C         -5.5059951994        1.6670404448        1.1433688777
 C         -4.5226714359        1.1368081307        1.9648395373
 C         -3.9323338078       -0.0736883270        1.6407128586
 H         -3.1679175001       -0.5133366319        2.2617836945
 H         -4.2098660406        1.6622736396        2.8530040108
 H         -5.9604401029        2.6116510721        1.3971601534
 H         -6.6751012719        1.4058272371       -0.6335998013
 H         -5.5998698465       -0.7741904378       -1.2083387999
 H         -1.3852187280       -2.1098821180        0.7171439782
 H         -3.0394328184       -0.8076033999       -2.2228819896
 H         -2.5385885345        1.4371874484       -3.1514484921
 H         -0.8119286559        2.8455893757       -2.1242183081
 C          0.7667724281        2.2287639580        0.0762396243
 H          0.4050697446        2.5034520325        1.0779686622
 C          1.1466056373        3.4919614646       -0.6674196354
 C          0.3610811972        4.7516920707       -0.4648131010
 C          1.7423464809        4.6303034909        0.1031827368
 H          2.5411461691        5.1979667100       -0.3499873353
 H          1.8504808548        4.5030560261        1.1708174747
 H         -0.4721152360        4.7168341692        0.2204713070
 H          0.2127031819        5.4085035845       -1.3085447948
 H          1.5507619545        3.2894132556       -1.6523839545
 O          2.2722516871        0.9168238374       -2.0033104069
