  62
        -98.94347951
 C          1.8206411461        0.5519063446        0.2959526804
 C          2.9573727889        0.6634423191        1.1307934331
 C          4.2506629069        0.7730537765        0.4432979046
 C          4.2815089991        0.7744680091       -0.9022283722
 C          5.5331448517        0.8182194726       -1.7292705234
 C          6.0362618161       -0.5965124837       -2.0491071882
 C          6.1216844583       -1.5127448765       -0.8283553431
 H          5.1136486205       -1.6960177120       -0.4491354414
 H          6.5154679623       -2.4728730323       -1.1688777844
 C          7.0004806565       -0.9743984042        0.3093939675
 H          7.6582206062       -0.1912854101       -0.0693521454
 H          7.6366153939       -1.7837922940        0.6738673140
 C          6.2224577534       -0.4425077786        1.5144264163
 H          5.4967647523       -1.1913862886        1.8421370220
 H          6.9284873800       -0.2915193333        2.3354119006
 C          5.4821676479        0.8833578963        1.2977381916
 H          5.1378486636        1.2343865590        2.2750293449
 H          6.1701084121        1.6262076476        0.8890544480
 H          7.0200548718       -0.5161737089       -2.5150305046
 H          5.3539765496       -1.0514811451       -2.7708455342
 H          5.3096783960        1.3344207705       -2.6643160695
 H          6.2987468492        1.3746374196       -1.1921307022
 O          3.1660738794        0.6856049106       -1.6705713577
 C          1.9089746637        0.5635155495       -1.0962356794
 O          0.9749436012        0.4783169572       -1.9146903469
 H         -2.1806976116        0.0083372842        0.2281765015
 C         -1.5819090683       -0.8848712888        0.1660207092
 C         -0.2333290966       -0.8461485846        0.4842842469
 C          0.5015845176       -2.0267876068        0.4078259889
 C         -0.0915236060       -3.2049942204        0.0000726567
 C         -1.4376604322       -3.2380299586       -0.3193417311
 C         -2.1854352344       -2.0714686588       -0.2293855043
 N         -3.5501603766       -2.0680618272       -0.5521824620
 S         -4.6266576995       -1.1965865114        0.3858525917
 O         -4.2152416055       -1.1539082265        1.7695357388
 O         -5.9129470138       -1.8090021989        0.1270841543
 C         -4.6280516889        0.4428021409       -0.3078411975
 C         -4.7827403362        1.5228369080        0.5384322341
 C         -4.8370475344        2.7978973755       -0.0030258286
 C         -4.7361307787        2.9692926222       -1.3748515483
 C         -4.5827526270        1.8737585686       -2.2110705161
 C         -4.5328456485        0.5961839531       -1.6767285846
 H         -4.4110916212       -0.2753023022       -2.2979515927
 H         -4.5008399230        2.0110883366       -3.2773164142
 H         -4.7753782122        3.9622844311       -1.7942749751
 H         -4.9563250466        3.6508946785        0.6462876519
 H         -4.8449109746        1.3448687071        1.6002827515
 H         -3.9282302813       -2.9664811827       -0.8152547571
 H         -1.9042595942       -4.1584849102       -0.6362619617
 H          0.4959035111       -4.1088093084       -0.0632148102
 H          1.5515157505       -2.0062351952        0.6670921625
 C          0.4507247467        0.4211605070        0.9339483293
 H          0.6373854274        0.3391025327        2.0158756771
 C         -0.3645629018        1.6716638112        0.6771155497
 C         -1.3841168733        2.1334591741        1.6735644791
 C         -0.0999474325        2.8880844333        1.5111136622
 H         -0.1267826699        3.8562497793        1.0344894569
 H          0.6481845562        2.8028034934        2.2857589591
 H         -1.5194385923        1.5382751345        2.5644075419
 H         -2.2924587190        2.5847558825        1.3041050920
 H         -0.5734634641        1.8208531873       -0.3765300133
 O          2.8935002602        0.6654912663        2.3903249401
