  62
        -98.93445556
 C         -1.2097490614       -1.5424749461        0.2660332803
 C         -1.9036686190       -1.0572180520       -0.8684464821
 C         -3.0058345355       -0.1221422759       -0.5919648286
 C         -3.3093190356        0.1990199738        0.6786381102
 C         -4.4369528517        1.0844193460        1.1408643935
 C         -4.3527417044        2.5709516138        0.7439920562
 C         -5.0967628227        2.9235628115       -0.5500749103
 H         -5.8845698687        2.1872295969       -0.7139062794
 H         -5.5919066033        3.8878651443       -0.4188926753
 C         -4.2308850904        3.0342011524       -1.8089245346
 H         -4.8957150965        3.0311113275       -2.6753044752
 H         -3.7083033367        3.9937152620       -1.8001841951
 C         -3.1775530437        1.9412211804       -1.9896299327
 H         -2.3485724224        2.1168039822       -1.2991221154
 H         -2.7631205755        2.0281471163       -2.9962783814
 C         -3.6948024408        0.5062636079       -1.7681328713
 H         -4.7748328254        0.5043575668       -1.6282307043
 H         -3.4584073737       -0.1127920337       -2.6360378264
 H         -4.8024404143        3.1405731359        1.5588287434
 H         -3.3079090725        2.8736091962        0.6776307609
 H         -5.3791531159        0.6674590821        0.7778862477
 H         -4.4369137811        1.0074600201        2.2300757009
 O         -2.6242391312       -0.3034315032        1.7417844073
 C         -1.5578050503       -1.1707232580        1.5648987598
 O         -1.0119444781       -1.5368273118        2.6233794678
 H          0.4378602346        0.1253078694       -0.4277276974
 C          1.2085213404       -0.5202470929       -0.8303240331
 C          1.1006195435       -1.8935452495       -0.6717191143
 C          2.1136776243       -2.6929287814       -1.1933027382
 C          3.1980412996       -2.1315494403       -1.8438723255
 C          3.2974039983       -0.7596100447       -1.9997239430
 C          2.2852265280        0.0434790393       -1.4991766400
 N          2.3945287743        1.4536258618       -1.6266227030
 S          3.3580739607        2.1354209634       -0.4347513066
 O          3.1704532660        3.5649254303       -0.5342699347
 O          4.7021411919        1.6486439805       -0.6058806790
 C          2.6643310098        1.5191550691        1.0878824046
 C          3.1045071365        0.3078423142        1.5822504034
 C          2.4715112737       -0.2317742612        2.6902430352
 C          1.4101370431        0.4391290022        3.2773747271
 C          0.9813416387        1.6558278004        2.7692151412
 C          1.6079382024        2.1998518631        1.6597074264
 H          1.3017098748        3.1420595201        1.2321292533
 H          0.1513333962        2.1707012943        3.2269392442
 H          0.9007841749        0.0016118210        4.1209543002
 H          2.7949859347       -1.1812572709        3.0850700763
 H          3.9282447001       -0.1870828743        1.0935880580
 H          1.4950102460        1.9145438517       -1.6095309609
 H          4.1410659669       -0.3000125734       -2.4877597866
 H          3.9763407595       -2.7690506730       -2.2342943466
 H          2.0522294581       -3.7635298448       -1.0817230338
 C         -0.0447253602       -2.4964537570        0.1083654874
 H          0.3201193673       -2.6942011738        1.1277995261
 C         -0.5154225083       -3.8064857755       -0.4992573249
 C          0.0315930272       -5.1160653516       -0.0185715811
 C         -1.3707186491       -4.7182333148        0.3271282748
 H         -2.1913277401       -5.2315933220       -0.1509413502
 H         -1.5795117844       -4.4125492604        1.3424152168
 H          0.1752464623       -5.9087382231       -0.7374142245
 H          0.7651691474       -5.0965576323        0.7734803838
 H         -0.7616742312       -3.7101496012       -1.5502456761
 O         -1.6218742351       -1.3797542661       -2.0520467420
