  62
        -98.93452401
 C         -2.3350033907       -0.7793464915       -0.1277575100
 C         -3.5478941899       -1.1631308382        0.4884873828
 C         -4.7784097363       -0.5610824730       -0.0533375616
 C         -4.6844683825        0.2940507237       -1.0866274872
 C         -5.7998222526        1.0533705208       -1.7507013355
 C         -5.9550290802        2.4496606003       -1.1242680829
 C         -6.8696182557        2.5088464860        0.0986053308
 H         -6.7879819613        3.5147281176        0.5168166077
 H         -7.9045882002        2.3696423839       -0.2205615725
 C         -6.5567009214        1.4919767937        1.1993815510
 H         -6.9963889757        1.8587083478        2.1289426740
 H         -5.4773676723        1.4366596833        1.3525410996
 C         -7.1150456522        0.0918057112        0.9045468354
 H         -7.8156403490        0.1556722425        0.0722831332
 H         -7.6884532672       -0.2574244798        1.7657260451
 C         -6.0605742589       -0.9853629915        0.6100249879
 H         -5.7440524890       -1.4510711333        1.5486823129
 H         -6.5179871186       -1.7780182037        0.0085997129
 H         -6.3553534777        3.1296248621       -1.8789575631
 H         -4.9577076864        2.8086801481       -0.8571869414
 H         -6.7294311898        0.4942894276       -1.7024405634
 H         -5.5134224967        1.1719165634       -2.7976999797
 O         -3.4936123622        0.6341137338       -1.6535608314
 C         -2.2942231825        0.1189900831       -1.1933500125
 O         -1.2896871049        0.5288462019       -1.8051988976
 O         -3.6010270503       -1.9669021459        1.4590042163
 C         -1.0320971448       -1.3636534884        0.3859917134
 C         -0.1078087162       -0.2590040495        0.8342722903
 C         -0.5728319671        0.6646093283        1.7681054760
 C          0.2371535298        1.6917864211        2.2101109424
 C          1.5331051949        1.8147449430        1.7398411421
 C          2.0060860469        0.9009574193        0.8062605143
 C          1.1877988064       -0.1294508544        0.3623040181
 H          1.5825723903       -0.8228713938       -0.3606965549
 N          3.3051470778        1.0195469338        0.2881050055
 S          4.1569610334       -0.3768646841       -0.1222167703
 O          3.7492330754       -0.8143969519       -1.4334008567
 O          4.0511816706       -1.3530819544        0.9390756760
 C          5.8150053188        0.2762080662       -0.1979858015
 C          6.6736209653        0.0847173022        0.8678677188
 C          7.9502300551        0.6212579015        0.8050141291
 C          8.3431212868        1.3388090979       -0.3146462698
 C          7.4702761001        1.5221935591       -1.3771299178
 C          6.1933483934        0.9868733616       -1.3216964419
 H          5.4841979639        1.0951456899       -2.1259529305
 H          7.7800101293        2.0782310819       -2.2472716114
 H          9.3369017304        1.7553590891       -0.3613926185
 H          8.6323424802        0.4773433480        1.6273676460
 H          6.3265954907       -0.4863490079        1.7138948815
 H          3.8787115107        1.6723371818        0.8041900720
 H          2.1681096495        2.6163423094        2.0853383396
 H         -0.1392132545        2.3999772742        2.9331004866
 H         -1.5835121555        0.5635095638        2.1404266373
 H         -1.3056817554       -1.9588374368        1.2704047650
 C         -0.4194054465       -2.2857549746       -0.6461945351
 C          0.5142831199       -3.3765771151       -0.2173413356
 C         -0.8608221560       -3.7159854409       -0.7066300111
 H         -0.9639873609       -4.1829329871       -1.6745659359
 H         -1.5956215357       -4.0388794562        0.0163622596
 H          1.3626403709       -3.6034964432       -0.8461052604
 H          0.7196299851       -3.4705757983        0.8385910944
 H         -0.2165553333       -1.7848109652       -1.5870306040
