  62
        -98.93288071
 C          2.2050424287        1.1052123902        0.2702800189
 C          2.1282533782        0.1306719390       -0.7531009791
 C          2.2555892883       -1.2833496152       -0.3339868646
 C          2.4773141329       -1.5668818845        0.9613199241
 C          2.6878111045       -2.9155957162        1.5964711941
 C          4.0811274510       -3.4999855689        1.3062007378
 C          4.5688086196       -3.3287319292       -0.1303749635
 H          5.6087549778       -3.6631751756       -0.1701505941
 H          4.5585130089       -2.2680027770       -0.3875231473
 C          3.7863698746       -4.1116096919       -1.1817733106
 H          3.8504412723       -5.1782685105       -0.9552448791
 H          4.2768970558       -3.9449437868       -2.1440598174
 C          2.3103269343       -3.7378304456       -1.3298100590
 H          1.7192817039       -4.1459471333       -0.5141773043
 H          1.9427314174       -4.2107215488       -2.2454189723
 C          2.0390871342       -2.2437561277       -1.4783013260
 H          0.9893393632       -2.1051819385       -1.7720180139
 H          2.6284693313       -1.8529332392       -2.3158501070
 H          4.0715687473       -4.5596748318        1.5661135577
 H          4.7973634483       -2.9973295473        1.9604692235
 H          2.5871626249       -2.7720430669        2.6746175610
 H          1.9022970542       -3.5964869916        1.2812291563
 O          2.5976401891       -0.5905037597        1.9070051424
 C          2.4125821928        0.7410728189        1.6015166408
 O          2.4800433613        1.5087561038        2.5851416784
 H         -0.2048219842        1.1063464077       -0.7111136172
 C         -0.4897068190        1.9778522960       -0.1414976618
 C          0.4774570379        2.8627780548        0.3121499073
 C          0.0718256325        3.9786622357        1.0349996698
 C         -1.2690499660        4.1950921725        1.3004524138
 C         -2.2261285310        3.2903951530        0.8776080064
 C         -1.8295189142        2.1702551489        0.1558591296
 N         -2.7600388436        1.2144665761       -0.2857427858
 S         -2.2855582257       -0.4093677510       -0.1841607102
 O         -1.5311812570       -0.6287611826        1.0296857969
 O         -1.6496068609       -0.7920347324       -1.4188659738
 C         -3.8852368008       -1.1926014009       -0.0748622844
 C         -4.6050316690       -1.3942425633       -1.2376621114
 C         -5.8672703440       -1.9602743065       -1.1544268886
 C         -6.3863705765       -2.3121875463        0.0828243824
 C         -5.6516460426       -2.1054532030        1.2406955404
 C         -4.3890945550       -1.5380090210        1.1647225109
 H         -3.7779555335       -1.3638532956        2.0360011502
 H         -6.0560478950       -2.3826423153        2.2008227448
 H         -7.3688984433       -2.7524914670        0.1451420078
 H         -6.4401368139       -2.1244882858       -2.0527069947
 H         -4.1555602131       -1.1121111405       -2.1754945448
 H         -3.6806796813        1.3525247395        0.1098085409
 H         -3.2692965179        3.4448846370        1.1078579662
 H         -1.5703648668        5.0658924333        1.8625871388
 H          0.8171646794        4.6647779429        1.4097593958
 C          1.9373513846        2.5851992091        0.0483743136
 H          2.5161650839        3.1117218844        0.8251927443
 C          2.4041481920        3.1089042046       -1.3011528822
 C          1.4663670626        3.4147619063       -2.4259261350
 C          2.1365085950        4.5332554975       -1.6897192412
 H          2.9184377273        5.0853402944       -2.1885324182
 H          1.5280326991        5.1269542101       -1.0248538026
 H          0.4121741225        3.2497353669       -2.2639766376
 H          1.7912835513        3.1735570105       -3.4262318599
 H          3.3700139180        2.7007440378       -1.5790870850
 O          1.9690539004        0.3969506876       -1.9725143387
