  62
        -98.94379193
 C         -1.4588542443       -0.9289368604       -0.4755326494
 C         -2.5324536867       -1.1058141733        0.4343675618
 C         -3.4305554102        0.0389699978        0.6246011307
 C         -3.1750756191        1.1855482938       -0.0310396583
 C         -4.0253958595        2.4205930321        0.0360830161
 C         -5.0964142787        2.4217204360       -1.0636937020
 C         -5.8888048576        1.1175255878       -1.1544113375
 H         -6.6333761712        1.2436740170       -1.9433167091
 H         -5.2178595218        0.3152249046       -1.4695743173
 C         -6.5885795433        0.7081903639        0.1490614896
 H         -7.6078366394        0.3934370526       -0.0844075402
 H         -6.6596254630        1.5674627345        0.8168673100
 C         -5.9218530767       -0.4532555465        0.8886125714
 H         -5.7623395112       -1.2846199939        0.1974494841
 H         -6.6081439485       -0.8004645612        1.6655370916
 C         -4.5858518920       -0.1318359304        1.5705888945
 H         -4.6978926645        0.7510965372        2.2037631110
 H         -4.3250481765       -0.9809598057        2.2093264648
 H         -5.7791798544        3.2531000475       -0.8790508080
 H         -4.6049547888        2.5922634099       -2.0243373472
 H         -4.4949155196        2.4770202623        1.0165003611
 H         -3.3772961679        3.2892346990       -0.0946516162
 O         -2.1265378983        1.3309507982       -0.8761713259
 C         -1.2357663889        0.2900533057       -1.1183913274
 O         -0.3309497622        0.5910052167       -1.9176349932
 H          0.8186359566        0.0005994641        0.3635803321
 C          1.1462273000       -0.9306647911        0.7946553367
 C          0.5519443408       -2.1192681115        0.3967055608
 C          0.9673898909       -3.3057368274        0.9907606341
 C          1.9621247814       -3.2974056947        1.9524445009
 C          2.5519263899       -2.1103714118        2.3463723848
 C          2.1299549642       -0.9143929455        1.7728832909
 N          2.6692495137        0.3002534109        2.2028349474
 S          2.6459656741        1.7214757611        1.3333826050
 O          3.4465958596        2.6182538021        2.1411357082
 O          1.2909412875        2.1401820631        1.0785237929
 C          3.5306847920        1.3707236744       -0.1744723810
 C          2.8726884851        1.2222292000       -1.3773329940
 C          3.6211970882        0.9454649943       -2.5128223197
 C          4.9975139633        0.8149321334       -2.4277286913
 C          5.6428523856        0.9656733664       -1.2088746324
 C          4.9046150200        1.2474652946       -0.0725712476
 H          5.3678422474        1.3949543521        0.8893999099
 H          6.7143425289        0.8668882993       -1.1430749287
 H          5.5696101053        0.5974214114       -3.3158608264
 H          3.1125578567        0.8318672752       -3.4566430962
 H          1.7984056515        1.3125915513       -1.4282169365
 H          3.4474997673        0.2406791462        2.8404151652
 H          3.3179063223       -2.1019294828        3.1062546588
 H          2.2775190187       -4.2244993448        2.4062788186
 H          0.4905926540       -4.2338938037        0.7123251915
 C         -0.5313428921       -2.1171787526       -0.6547212051
 H         -1.1633593452       -3.0007192299       -0.4669298785
 C          0.0254909934       -2.2469750039       -2.0653873698
 C          1.4494927334       -1.9475290220       -2.4133534674
 C          0.9640024575       -3.3639725734       -2.4153046031
 H          0.8337926057       -3.8654342406       -3.3622423705
 H          1.2994980534       -4.0064007808       -1.6161731882
 H          2.1095578624       -1.6305885403       -1.6205049911
 H          1.6402924273       -1.4594897370       -3.3560418968
 H         -0.7152504454       -1.9839146111       -2.8135136824
 O         -2.7317737381       -2.1852553395        1.0560502512
