  62
        -98.93716710
 C          2.6174746308        1.2194743880        0.1781275048
 C          2.7015659958        0.1674522467       -0.7620232959
 C          3.9397232948       -0.6335857724       -0.7402541720
 C          4.9084947005       -0.3318953625        0.1445902499
 C          6.2802611300       -0.9350122994        0.3661004940
 C          6.6503651531       -2.2825188798       -0.2480297578
 C          5.8879551836       -3.4768337959        0.3248911977
 H          6.1562767762       -4.3631750976       -0.2540892208
 H          6.2194830957       -3.6388724587        1.3536862320
 C          4.3675938127       -3.3394726113        0.3477028039
 H          3.9561075205       -4.2532171726        0.7850146650
 H          4.0833356876       -2.5141694323        1.0037744116
 C          3.7073696689       -3.1395873419       -1.0150620700
 H          2.6260992593       -3.2131525061       -0.8703291825
 H          4.0102982320       -3.9413712367       -1.6912929273
 C          3.9900931757       -1.7897463449       -1.6969465168
 H          4.9364325277       -1.8064386773       -2.2322154526
 H          3.1997002098       -1.6118150970       -2.4320003781
 H          6.5457708447       -2.2455405300       -1.3282840964
 H          7.7122069898       -2.4380931968       -0.0384398094
 H          6.9945632684       -0.1845212182        0.0096441160
 H          6.4090789682       -0.9893565784        1.4518395620
 O          4.7833886082        0.7054065698        1.0252774768
 C          3.6475109468        1.4923754734        1.0749132543
 O          3.6741630966        2.3837214438        1.9480775413
 H         -1.0505754278        2.1508557132       -1.0772808713
 C         -1.0118754692        1.4103366748       -0.2934838823
 C          0.1468515771        1.2479858921        0.4485858129
 C          0.1557801683        0.2927338336        1.4618307506
 C         -0.9553294079       -0.4904589722        1.7057346365
 C         -2.1046619148       -0.3371513024        0.9494768067
 C         -2.1319308598        0.6233951497       -0.0508153636
 N         -3.2919507658        0.7862972007       -0.8237498898
 S         -4.7834129195        0.8578190191       -0.0624699105
 O         -5.6330921637        1.5963871941       -0.9710250826
 O         -4.6693790140        1.3820482281        1.2785901858
 C         -5.3239620938       -0.8379404329       -0.0145829182
 C         -5.3755804828       -1.5384672488       -1.2036887503
 C         -5.8043072640       -2.8559365465       -1.1860174356
 C         -6.1744790733       -3.4467439306        0.0130532220
 C         -6.1205111057       -2.7289435465        1.1979062281
 C         -5.6917687293       -1.4106664547        1.1870105966
 H         -5.6295982251       -0.8157385537        2.0844847984
 H         -6.4093469491       -3.1899088533        2.1288371885
 H         -6.5076734515       -4.4725462271        0.0238874155
 H         -5.8477981409       -3.4174014254       -2.1054028667
 H         -5.0827033130       -1.0433049013       -2.1144341593
 H         -3.2127723996        1.4869587732       -1.5461056165
 H         -2.9738095956       -0.9472610487        1.1330380239
 H         -0.9276713698       -1.2307243659        2.4911671159
 H          1.0525300656        0.1714037846        2.0549653909
 C          1.3783402637        2.0932669828        0.2291498099
 H          1.5012869391        2.7443881039        1.1075497167
 C          1.3102262652        2.9605926260       -1.0111687046
 C          0.6430991916        4.3017085749       -0.9622915836
 C          2.1354189973        4.2096446057       -1.0638380920
 H          2.6074020462        4.4777819429       -1.9971157269
 H          2.7259158387        4.4493567568       -0.1914175808
 H          0.0926663471        4.6383808580       -1.8283497720
 H          0.2173691888        4.6152026030       -0.0207491098
 H          1.2274871004        2.3777117137       -1.9216551491
 O          1.7901552760       -0.0912001761       -1.5904814316
