  62
        -98.93759146
 C         -1.0038580963       -1.9307322293       -0.8813887681
 C         -0.1923699752       -2.5814543758        0.0818292356
 C          1.2594448989       -2.5574651422       -0.1802315243
 C          1.7284780229       -1.9480064762       -1.2820139512
 C          3.1751799974       -1.6824975182       -1.5836498032
 C          3.6609558574       -0.4971072083       -0.7230320966
 C          4.7426343923       -0.8597690677        0.2938569167
 H          5.6934810614       -0.9967483855       -0.2263688372
 H          4.8502488014       -0.0070457260        0.9680984998
 C          4.4732872042       -2.1176672696        1.1252151773
 H          4.7229465447       -3.0052386019        0.5407525445
 H          5.1656698723       -2.0952527306        1.9696640806
 C          3.0459952315       -2.2728433471        1.6668289158
 H          2.5561688640       -1.3027800293        1.7647671838
 H          3.1096111590       -2.6961565397        2.6721223930
 C          2.1469087257       -3.2128614113        0.8404626554
 H          2.7618658403       -3.9766032405        0.3551909630
 H          1.4610244248       -3.7229209349        1.5236057993
 H          2.8028510746       -0.0773569632       -0.1917273257
 H          4.0469164905        0.2922613071       -1.3705245395
 H          3.2524816917       -1.4415046102       -2.6440327184
 H          3.7676507384       -2.5719373371       -1.3817978253
 O          0.9144690650       -1.3993482167       -2.2209811342
 C         -0.4566061191       -1.3515038636       -2.0289526901
 O         -1.0790697502       -0.7744616546       -2.9435498475
 O         -0.6288671209       -3.1517252236        1.1138552221
 C         -2.4950302267       -1.6766057055       -0.7153282523
 C         -2.6851372008       -0.2565632228       -0.2365755801
 C         -3.6757369900        0.5608891161       -0.7673349146
 C         -3.8071602180        1.8719229613       -0.3443330206
 C         -2.9346259844        2.4009061622        0.5897613493
 C         -1.9353453472        1.5942543965        1.1219936232
 C         -1.8348247441        0.2686906751        0.7268776275
 H         -1.0597301244       -0.3478739724        1.1570193178
 N         -1.0048993692        2.1027030775        2.0501013092
 S          0.6242826500        1.9821602007        1.6754554345
 O          1.0311268294        0.6027671441        1.6465921438
 O          1.2854959575        2.8280204256        2.6446525019
 C          0.7669494863        2.7000252561        0.0512034201
 C          1.0837188755        4.0384211205       -0.0762412604
 C          1.1329512048        4.5956887541       -1.3438161488
 C          0.8542751091        3.8137177244       -2.4554893328
 C          0.5346458599        2.4724535595       -2.3106677020
 C          0.4921328039        1.9096764560       -1.0456262552
 H          0.2485478177        0.8688304410       -0.9036577931
 H          0.3088669445        1.8498390220       -3.1626070465
 H          0.8870682217        4.2493711765       -3.4416187580
 H          1.3850495334        5.6372183540       -1.4620972695
 H          1.2970909059        4.6070169661        0.8145065699
 H         -1.2077547494        3.0448769958        2.3548021054
 H         -3.0198638907        3.4307452328        0.9017725770
 H         -4.5825755802        2.4952785005       -0.7622167918
 H         -4.3317007636        0.1687414201       -1.5302644784
 H         -2.9272863274       -1.7391190650       -1.7276396032
 C         -3.2199912939       -2.6934001479        0.1506974105
 C         -3.6263897054       -2.4159642521        1.5634730710
 C         -4.6681365860       -2.4977795541        0.4905829261
 H         -5.3210457464       -3.3570238227        0.4689749681
 H         -5.1371158067       -1.5763615418        0.1809166258
 H         -3.5400366752       -3.2218454941        2.2759522572
 H         -3.3915953785       -1.4473364642        1.9780586828
 H         -2.9039758866       -3.7076530225       -0.0664224149
