  62
        -98.93400107
 C         -2.6566260907       -0.5949562294       -0.3931319390
 C         -2.2304093905       -1.4434029596        0.6578973208
 C         -1.3518873408       -2.5609285397        0.2649448304
 C         -1.0105137812       -2.7203081395       -1.0248313898
 C         -0.0140565015       -3.7160024496       -1.5476978502
 C          1.4143333286       -3.1959768999       -1.2835676305
 C          2.2227361888       -4.0288221901       -0.2871331909
 H          2.5808494285       -4.9308942001       -0.7889314511
 H          3.0955186390       -3.4361871103       -0.0041117710
 C          1.4871101591       -4.4651666802        0.9830157193
 H          0.8475625989       -5.3211343601        0.7603732793
 H          2.2478870792       -4.8173917905        1.6831068490
 C          0.6416634094       -3.3915885502        1.6797336797
 H          1.0084807895       -2.3897401202        1.4496681297
 H          0.7471569797       -3.5243342704        2.7589739096
 C         -0.8647297907       -3.4620407099        1.3651535801
 H         -1.1478260409       -4.4956857398        1.1459347600
 H         -1.4196896604       -3.1455955500        2.2533986303
 H          1.9660276284       -3.1603723498       -2.2248653107
 H          1.3421939889       -2.1643099399       -0.9291637303
 H         -0.1677978315       -4.6820974596       -1.0718952103
 H         -0.1879955418       -3.8189933994       -2.6191518402
 O         -1.4854942614       -1.9196032493       -2.0145871195
 C         -2.2762283411       -0.8256892892       -1.7182193591
 O         -2.6035974913       -0.1451124590       -2.7131256689
 H         -0.8745866001        0.7988109302        0.7389769907
 C         -1.1436359002        1.7015794403        0.2100927810
 C         -2.4205499103        1.8465305806       -0.3112443987
 C         -2.7353076403        3.0243687808       -0.9784463884
 C         -1.7877337702        4.0221064306       -1.1277121385
 C         -0.5000865101        3.8493272103       -0.6524247489
 C         -0.1756618001        2.6733652702        0.0135323708
 N          1.1252982300        2.4224851699        0.4851656904
 S          1.6892207497        0.8413138599        0.2407234700
 O          1.2197842493        0.3428856701       -1.0313923899
 O          1.3717457199        0.0513718697        1.4025970000
 C          3.4494743697        1.1222359596        0.1814265796
 C          4.1558126601        1.1931231193        1.3672457594
 C          5.5175642701        1.4466743691        1.3208495991
 C          6.1460146598        1.6250975092        0.0973180689
 C          5.4242350995        1.5484099495       -1.0844895509
 C          4.0618293294        1.2961231897       -1.0452511406
 H          3.4605186592        1.2175650399       -1.9370183704
 H          5.9156096992        1.6832671795       -2.0345190110
 H          7.2058551098        1.8218787090        0.0638391086
 H          6.0823942504        1.5031404288        2.2372084889
 H          3.6247404003        1.0376815192        2.2918433595
 H          1.7968255801        3.1067509899        0.1628459904
 H          0.2501844000        4.6104172902       -0.8046329490
 H         -2.0455768302        4.9323119907       -1.6475275083
 H         -3.7195432004        3.1430130410       -1.4072526881
 C         -3.4104631204        0.7120618107       -0.1893328686
 H         -4.1077807906        0.7980401610       -1.0397629083
 C         -4.2342666101        0.7805486407        1.0856400517
 C         -3.7713926296        1.5069164204        2.3088769517
 C         -4.8966421097        2.0638166107        1.4926014821
 H         -5.8973454496        2.0176573808        1.8943895423
 H         -4.6950995098        2.9439616408        0.9017228622
 H         -3.9858187194        1.0597132103        3.2671039317
 H         -2.8131536495        2.0024575303        2.2679379515
 H         -4.7960511602       -0.1315195093        1.2527900617
 O         -2.5499639002       -1.3012452297        1.8666684709
