  62
        -98.93468368
 C         -2.5534659800       -0.4968571504        0.3963633600
 C         -2.8931325904        0.8701524594        0.2250490291
 C         -4.1885594104        1.1512195786       -0.4053240013
 C         -4.9579189501        0.1223940481       -0.8042665107
 C         -6.3206123700        0.2558593773       -1.4187205009
 C         -7.4194748301        0.2218081277       -0.3475579710
 C         -7.1661185205        1.1676627385        0.8263201084
 H         -8.0203811206        1.0840008187        1.5016584883
 H         -6.2866781405        0.8249589291        1.3763532687
 C         -6.9717544109        2.6370593783        0.4269288274
 H         -7.3580623208        2.8016517176       -0.5795510227
 H         -7.5552541012        3.2639338386        1.1045364369
 C         -5.5248049411        3.1285479888        0.5008296673
 H         -5.1032111011        2.8799351896        1.4780136975
 H         -5.5315410314        4.2184493487        0.4152138165
 C         -4.5799859508        2.5914709283       -0.5818351123
 H         -5.0211477307        2.7520083776       -1.5677749024
 H         -3.6490682710        3.1631573286       -0.5249077025
 H         -8.3706666102        0.4722241571       -0.8207974813
 H         -7.4912660999       -0.7962889221        0.0421056696
 H         -6.3710416102        1.1886429869       -1.9770865115
 H         -6.4702819097       -0.5777632232       -2.1069289604
 O         -4.5923953997       -1.1733893517       -0.6479826198
 C         -3.3892451797       -1.5245286910       -0.0438503794
 O         -3.2108172393       -2.7535163609        0.0264443714
 O         -2.1433171807        1.8142320898        0.5942596785
 C         -1.2221509500       -0.7806861996        1.0682331004
 C         -0.1142185199       -0.9048399500        0.0524481006
 C         -0.2425182295       -1.7291908807       -1.0606767689
 C          0.7897881906       -1.8367122411       -1.9750274187
 C          1.9647679004       -1.1266110106       -1.8025676790
 C          2.1041510401       -0.3010655798       -0.6950597696
 C          1.0673498599       -0.1989122695        0.2252239902
 H          1.1734395096        0.4554056511        1.0800280798
 N          3.2873122798        0.4378457406       -0.5229904099
 S          4.7478511501       -0.3555353192       -0.8326105192
 O          4.9961357002       -0.3174985000       -2.2518327692
 O          4.7311853804       -1.6689352388       -0.2290025884
 C          5.8999243297        0.7072227417        0.0140657802
 C          6.2957561096        0.3852316027        1.2984847405
 C          7.1731899093        1.2294798634        1.9605454700
 C          7.6345118891        2.3760630431        1.3314291693
 C          7.2280719991        2.6855440321        0.0418338590
 C          6.3518355794        1.8453669614       -0.6265315405
 H          6.0163900995        2.0403974407       -1.6317212007
 H          7.5913019789        3.5766422919       -0.4441732715
 H          8.3176556788        3.0311069836        1.8486677289
 H          7.4934287893        0.9900710141        2.9617861502
 H          5.9195206498       -0.5214671771        1.7446977810
 H          3.3120111296        0.9229435512        0.3635397298
 H          2.7763636305       -1.2062156508       -2.5078270089
 H          0.6789107409       -2.4824607916       -2.8335758183
 H         -1.1546120393       -2.2906020911       -1.1969747086
 H         -1.0159366803        0.1218904308        1.6657006598
 C         -1.2705516298       -1.9570386190        2.0334549111
 C         -0.6079367794       -3.2731691690        1.7750705821
 C         -0.0458374098       -2.3460799181        2.8079735715
 H         -0.1518570398       -2.6031174075        3.8509479917
 H          0.8772023401       -1.8399908680        2.5670882913
 H         -1.1256901892       -4.1639675889        2.0959163226
 H         -0.0622138692       -3.3996340894        0.8532213722
 H         -2.2142885898       -1.9976285589        2.5680564310
