  62
        -98.94092614
 C         -2.4165640054       -1.0952513052       -0.2428721452
 C         -3.7275358703       -1.1631844605        0.2882847905
 C         -4.7100020313       -0.2561774616       -0.3142678160
 C         -4.3344619052        0.5680510426       -1.3093776573
 C         -5.2258758958        1.5363456287       -2.0388584610
 C         -5.4065347360        2.8815457466       -1.3221455550
 C         -6.2880173537        2.8403083465       -0.0732413756
 H         -7.2366115337        2.3599979240       -0.3151072638
 H         -6.5064030343        3.8749291342        0.1985697762
 C         -5.6459489973        2.1390622937        1.1319496073
 H         -5.7951908286        2.7454359882        2.0282596303
 H         -4.5671647343        2.0612053487        0.9759773558
 C         -6.2060411119        0.7477100627        1.4275605167
 H         -7.2564240502        0.8293560202        1.7155623681
 H         -5.6562291291        0.3300816267        2.2748510005
 C         -6.0955086070       -0.2389914299        0.2578663827
 H         -6.8231242118        0.0097807702       -0.5141858968
 H         -6.3115684712       -1.2418546783        0.6342028932
 H         -5.8586051535        3.5730390067       -2.0369451564
 H         -4.4205731765        3.2727861768       -1.0600228178
 H         -6.2012870730        1.0795912926       -2.2086101204
 H         -4.7552127764        1.7229218301       -3.0065003009
 O         -3.0647812336        0.5999313096       -1.7952697492
 C         -2.0721448612       -0.2136979609       -1.2672311210
 O         -0.9540184144       -0.0648069755       -1.7973884231
 O         -4.0598673943       -1.9460739622        1.2177694606
 C         -1.3438294159       -1.9934644272        0.3483340461
 C         -0.2799574937       -1.1301904291        0.9798708424
 C         -0.6333065288       -0.3275272517        2.0621812721
 C          0.2930741877        0.5099035489        2.6513764753
 C          1.5935735328        0.5661078748        2.1787268289
 C          1.9549627011       -0.2243418367        1.0972023157
 C          1.0206170607       -1.0706359148        0.5091648315
 H          1.3133292009       -1.6732622691       -0.3362149605
 N          3.2798841964       -0.2112616202        0.6161549964
 S          4.0775199261        1.2598791840        0.3978245588
 O          4.3079457124        1.8580098503        1.6888214089
 O          3.3820423009        2.0844090063       -0.5666723084
 C          5.6197286735        0.6745221445       -0.2756232776
 C          5.8450941725        0.7466502948       -1.6366699843
 C          7.0404885950        0.2615669666       -2.1442904840
 C          7.9820767059       -0.2876307887       -1.2872156860
 C          7.7405598164       -0.3538637417        0.0771388130
 C          6.5488066065        0.1310144263        0.5912122598
 H          6.3206473364        0.1084027221        1.6438030932
 H          8.4760050170       -0.7804765961        0.7399268746
 H          8.9109423817       -0.6644210733       -1.6853910570
 H          7.2316886255        0.3137743297       -3.2040971009
 H          5.0866829160        1.1868067597       -2.2645870225
 H          3.3644389372       -0.7575359606       -0.2315576407
 H          2.3207171647        1.2241449432        2.6247784226
 H          0.0041347700        1.1285308226        3.4881312996
 H         -1.6505004730       -0.3649856332        2.4283067451
 H         -1.8452149362       -2.5563163790        1.1485754946
 C         -0.8231302038       -2.9715436002       -0.6824427987
 C         -0.1302715406       -4.2239585968       -0.2375763242
 C         -1.5026620129       -4.2981037672       -0.8344045667
 H         -1.6135586787       -4.7083251118       -1.8269489799
 H         -2.3366402624       -4.5072439269       -0.1807210818
 H          0.7018847601       -4.5890553257       -0.8201596118
 H         -0.0296022231       -4.3855588245        0.8248710786
 H         -0.4753056806       -2.4855266848       -1.5869778880
