  62
        -98.94395507
 C         -1.3766810222       -1.5920090476       -0.6272366606
 C         -2.6039056618       -1.5526746054        0.0830360824
 C         -3.5754205924       -0.5359203892       -0.3357290997
 C         -3.2659301660        0.2824600145       -1.3574592590
 C         -4.1280405396        1.4085542425       -1.8482898695
 C         -3.7744467229        2.7213540566       -1.1359488059
 C         -3.7107150616        2.6011746993        0.3868928606
 H         -2.8625678993        1.9662158544        0.6564186855
 H         -3.4934656892        3.5968081385        0.7807504207
 C         -4.9907057936        2.0583317478        1.0383416115
 H         -5.2224395132        2.6698408885        1.9129330270
 H         -5.8270629633        2.1541181408        0.3448633317
 C         -4.8946920286        0.6094946568        1.5203275478
 H         -5.7598392045        0.4049805092        2.1568138521
 H         -3.9988265290        0.4883423286        2.1350867637
 C         -4.8714734545       -0.4593901794        0.4205485677
 H         -4.9951430575       -1.4340080549        0.9018674724
 H         -5.7087148675       -0.3032797003       -0.2627694932
 H         -4.5126475694        3.4762401487       -1.4140485171
 H         -2.7944441597        3.0547305199       -1.4866192959
 H         -5.1742860638        1.1605912296       -1.6795181418
 H         -3.9596492174        1.5306639546       -2.9197189081
 O         -2.0968373923        0.1997979353       -2.0359097922
 C         -1.1055874008       -0.7059518823       -1.6713090992
 O         -0.0770890829       -0.6157721161       -2.3658416469
 O         -2.8730291965       -2.3427876245        1.0289211607
 C         -0.3524273729       -2.5982501017       -0.1336033270
 C          0.4408271766       -2.0217823069        1.0147301945
 C          0.7987802413       -2.8040731865        2.1068019972
 C          1.5224328597       -2.2576672068        3.1522357513
 C          1.8905545802       -0.9247414364        3.1357128520
 C          1.5199317194       -0.1272623555        2.0567601649
 C          0.8146345376       -0.6861432651        1.0012236443
 H          0.5227828566       -0.0602451964        0.1745758506
 N          1.8228949647        1.2360553754        2.0488806397
 S          1.8594403730        2.2001668580        0.6896547747
 O          2.3435104119        3.4686484702        1.1936188870
 O          0.5692028037        2.2255108483        0.0494587865
 C          3.1128419385        1.4891758538       -0.3604777402
 C          4.4263875466        1.6737087792        0.0315621940
 C          5.4424673099        1.1343440751       -0.7379892942
 C          5.1303235187        0.4222413226       -1.8870564861
 C          3.8097749673        0.2502144339       -2.2677437417
 C          2.7848187463        0.7837426819       -1.4991095212
 H          1.7519998630        0.6444802839       -1.7796739936
 H          3.5582859898       -0.3003609156       -3.1599498107
 H          5.9193951172        0.0014717298       -2.4900579784
 H          6.4704787995        1.2708254121       -0.4435283972
 H          4.6255634679        2.2524812261        0.9187434571
 H          2.4283638724        1.5633055750        2.7849412272
 H          2.4407849980       -0.4951794161        3.9585162335
 H          1.7957546233       -2.8741684440        3.9949711520
 H          0.4868558506       -3.8372940013        2.1450311919
 H         -0.9455624652       -3.4347767044        0.2709978555
 C          0.5368334021       -3.1588296250       -1.2336074752
 C          1.9713202108       -2.7680705863       -1.4016191309
 C          1.6252268198       -4.1398869064       -0.9111901154
 H          1.7714851225       -4.9786692347       -1.5746381862
 H          1.8124986425       -4.3593596738        0.1283188331
 H          2.3417903318       -2.6500317316       -2.4075921078
 H          2.3893630976       -2.0613030324       -0.7011180156
 H         -0.0210749230       -3.3365385444       -2.1471131817
