  62
        -98.93748933
 C         -2.2842807161       -0.4160467341       -0.3755455605
 C         -3.5252158044       -0.7408388614       -0.9815782093
 C         -4.7103561363       -0.6403635124       -0.1234229332
 C         -4.5663900569       -0.3137091659        1.1733086516
 C         -5.6750716387       -0.1853334083        2.1823581039
 C         -6.3774586531        1.1794026330        2.1650570699
 C         -7.2895672915        1.4275480490        0.9628563241
 H         -7.8805149104        2.3175297229        1.1880216495
 H         -7.9841106247        0.5936965775        0.8568377552
 C         -6.5462518283        1.6521872559       -0.3614692669
 H         -5.5000355423        1.8913791393       -0.1558634215
 H         -6.9742515047        2.5141280148       -0.8783400723
 C         -6.6033273138        0.4697626418       -1.3289584393
 H         -6.0142083508        0.7223565308       -2.2145402996
 H         -7.6352108350        0.3062325031       -1.6472390173
 C         -6.0551469847       -0.8427120047       -0.7536130952
 H         -5.9333750462       -1.5534098745       -1.5746577125
 H         -6.7560425793       -1.2587287489       -0.0304066019
 H         -5.6182057223        1.9634669264        2.2143759907
 H         -6.9824048252        1.2454584905        3.0722833926
 H         -6.4089088757       -0.9759170037        2.0232656453
 H         -5.2186016060       -0.3257048877        3.1644507067
 O         -3.3519330454       -0.0778424220        1.7353332367
 C         -2.1834545387       -0.1049968353        0.9812769162
 O         -1.1586320753        0.1506995467        1.6399657719
 H          1.4338355244        0.4529956207       -0.4205283828
 C          1.2716992707       -0.5931315712       -0.2210963393
 C          0.0731160037       -1.2010798017       -0.5551726820
 C         -0.1011465504       -2.5476997846       -0.2439327875
 C          0.8987022411       -3.2631658005        0.3845952617
 C          2.1035537109       -2.6577970077        0.6965559420
 C          2.2846455656       -1.3135158269        0.3967681033
 N          3.4848845044       -0.6616632236        0.7205593119
 S          4.0555975272        0.5312048847       -0.3266007599
 O          3.4631946049        1.7968636692        0.0261033738
 O          3.8850494925        0.1081968729       -1.6988632758
 C          5.7869196420        0.5384315277        0.1036923835
 C          6.6809072707       -0.1746906648       -0.6725970939
 C          8.0195671094       -0.1874173324       -0.3133523336
 C          8.4388106252        0.5064652558        0.8117475325
 C          7.5299411396        1.2181850398        1.5808820739
 C          6.1903126234        1.2364467945        1.2265322432
 H          5.4496363908        1.7822829073        1.7876647115
 H          7.8599569003        1.7588247337        2.4532644066
 H          9.4808851081        0.4951129752        1.0895801266
 H          8.7288380485       -0.7367152867       -0.9112400647
 H          6.3101376007       -0.6919290513       -1.5428859517
 H          4.2165891856       -1.2959454068        1.0095804106
 H          2.8899325560       -3.2174535563        1.1799996356
 H          0.7453613688       -4.3048436619        0.6239832571
 H         -1.0394220088       -3.0232277617       -0.4971286244
 C         -1.0456036816       -0.4684054011       -1.2501839880
 H         -1.3518593487       -1.0738617161       -2.1208369113
 C         -0.6168907555        0.8850473812       -1.7970644970
 C         -1.6208267765        1.9609504227       -2.0801952638
 C         -0.6360413760        2.1300639237       -0.9642235152
 H          0.1727735793        2.8365808071       -1.0858680570
 H         -0.9851205604        2.0456279820        0.0532256541
 H         -2.6514905879        1.7616166380       -1.8245549713
 H         -1.4982034016        2.5563949435       -2.9723361596
 H          0.2022696342        0.7923823017       -2.5054420123
 O         -3.6353583924       -1.1039502057       -2.1828644546
