  62
        -98.94072483
 C         -2.2835083642       -0.9471050413       -0.2323497652
 C         -3.6082951781       -1.1853586933        0.2072845684
 C         -4.6379202364       -0.2904832172       -0.3364260515
 C         -4.2796662302        0.6688992291       -1.2092792483
 C         -5.2149223737        1.6840207277       -1.7986758013
 C         -5.2630862794        2.9562926554       -0.9410014152
 C         -5.4820624463        2.6883713913        0.5480643935
 H         -4.6102835900        2.1641406197        0.9466730737
 H         -5.5298233953        3.6577194804        1.0489682386
 C         -6.7494185983        1.8835195133        0.8685667369
 H         -7.2583624185        2.3541955455        1.7122994656
 H         -7.4326344187        1.9155053394        0.0192429727
 C         -6.4947311426        0.4264828655        1.2592012656
 H         -7.4209691776        0.0185538224        1.6723250178
 H         -5.7391134974        0.3857339980        2.0477504444
 C         -6.0537450586       -0.5030652585        0.1213073157
 H         -6.0961067873       -1.5299556339        0.4956920447
 H         -6.7473478420       -0.4138164912       -0.7169807177
 H         -4.3153939966        3.4873845775       -1.0574785213
 H         -6.0612949376        3.5975915968       -1.3190644630
 H         -4.8562648486        1.9422679386       -2.7964558224
 H         -6.2094107904        1.2500077587       -1.8809668365
 O         -2.9993992235        0.8571640267       -1.6212211188
 C         -1.9663904986        0.0694711203       -1.1329676873
 O         -0.8414086699        0.3700932287       -1.5770988879
 H          1.5363715693       -1.3302389025       -0.1079185554
 C          1.1311305181       -0.8078400673        0.7412109255
 C         -0.2023510217       -0.9508753635        1.0888601736
 C         -0.6860869428       -0.2522018853        2.1932194426
 C          0.1408814322        0.5805690834        2.9199179509
 C          1.4662644599        0.7402100147        2.5543781593
 C          1.9622277806        0.0413965252        1.4607122589
 N          3.3211769894        0.1565019210        1.1077260318
 S          3.7599345381        0.3393269609       -0.5140225141
 O          3.1657166834        1.5383942229       -1.0631302542
 O          3.5141925365       -0.8928684179       -1.2170306688
 C          5.5180076514        0.5721032481       -0.3145455922
 C          6.0459859611        1.8485771226       -0.3506443404
 C          7.4094916017        2.0165167307       -0.1658479917
 C          8.2171955092        0.9110486419        0.0537558959
 C          7.6730979501       -0.3644718010        0.0860713222
 C          6.3109458318       -0.5389768483       -0.0990281052
 H          5.8445966625       -1.5101670995       -0.0904836852
 H          8.3047077816       -1.2218232677        0.2540545353
 H          9.2777972635        1.0441461220        0.1975658194
 H          7.8352765244        3.0066065003       -0.1941650517
 H          5.3804695163        2.6770396152       -0.5335973611
 H          3.7859289958        0.8723582430        1.6524619276
 H          2.1121575975        1.4000805247        3.1141550714
 H         -0.2485104337        1.1174396245        3.7719801338
 H         -1.7258082227       -0.3698821030        2.4676579179
 C         -1.1650584402       -1.8170700618        0.3150783021
 H         -1.6518195058       -2.5051270550        1.0220663176
 C         -0.5171044503       -2.6294293636       -0.7843435743
 C          0.1982478934       -3.9022775420       -0.4472600976
 C         -1.1160379782       -3.9487771076       -1.1654908946
 H         -1.1265955364       -4.2268095159       -2.2087122890
 H         -1.9880871564       -4.2742984970       -0.6172162113
 H          1.0955251608       -4.1459582157       -0.9957666644
 H          0.2198828229       -4.2008890144        0.5899120815
 H         -0.1143903803       -2.0150188182       -1.5825219917
 O         -3.9133394927       -2.0993883435        1.0196163989
