  62
        -98.94182010
 C          1.1615348896        1.5055316374        0.5251705705
 C          2.1012463599        1.1764050838       -0.4775760342
 C          3.1449160304        0.1966070049       -0.1141855850
 C          3.1401688754       -0.3283119349        1.1250132813
 C          4.0653991162       -1.3699063856        1.6943441676
 C          3.7164943147       -2.7883624908        1.2123241139
 C          3.3654503703       -2.8993590242       -0.2695788934
 H          3.0170230361       -3.9201607939       -0.4508452106
 H          2.5217718366       -2.2404887978       -0.4881217645
 C          4.5130687026       -2.6179824967       -1.2370616249
 H          5.3095712524       -3.3454001830       -1.0625551881
 H          4.1303886513       -2.7801252983       -2.2480835329
 C          5.1202584826       -1.2155033658       -1.1748120109
 H          5.7704218909       -1.1053971905       -2.0478814427
 H          5.7561794546       -1.1068802647       -0.3004266434
 C          4.1094895216       -0.0747232899       -1.2430023238
 H          4.6553213599        0.8635862942       -1.4019945283
 H          3.4875705512       -0.2029111823       -2.1364885697
 H          4.5538591903       -3.4496264143        1.4424548270
 H          2.8461373149       -3.1322674780        1.7770331650
 H          5.0962757453       -1.1203073799        1.4612596699
 H          3.9506552495       -1.3349413886        2.7800860472
 O          2.2049264907        0.0103577658        2.0575159832
 C          1.1888175700        0.9032299241        1.7809424053
 O          0.3826738743        1.0786466533        2.7190858240
 H         -0.4924509613       -0.1126876048       -0.2700573164
 C         -1.0344160851        0.5296955882       -0.9457487330
 C         -0.8614571905        1.9038449545       -0.8696627204
 C         -1.5466122895        2.7060424297       -1.7745792578
 C         -2.3685697176        2.1350633470       -2.7309383184
 C         -2.5410304496        0.7639679642       -2.7978995905
 C         -1.8617941995       -0.0464142580       -1.8954818497
 N         -1.9905485979       -1.4422893014       -1.9269288958
 S         -1.9179160424       -2.3306264692       -0.5136396956
 O         -0.5704882180       -2.3694317799       -0.0041159184
 O         -2.4929789582       -3.6092784390       -0.8745532953
 C         -3.0119877833       -1.4829532577        0.6118510200
 C         -2.5171874233       -0.7422549604        1.6649306811
 C         -3.4074008499       -0.0588673195        2.4793972255
 C         -4.7687536510       -0.1284957144        2.2311003538
 C         -5.2522064171       -0.8853750009        1.1738610277
 C         -4.3677424165       -1.5659454941        0.3545341454
 H         -4.7037771252       -2.1746090469       -0.4691639578
 H         -6.3121345628       -0.9437388851        0.9861147435
 H         -5.4551612720        0.4073375727        2.8674988774
 H         -3.0186450898        0.5263755725        3.2977566434
 H         -1.4542813884       -0.6971052814        1.8451068429
 H         -2.6843761312       -1.7985441628       -2.5669051407
 H         -3.1824307158        0.3228486525       -3.5451198492
 H         -2.8885360081        2.7687103886       -3.4331712360
 H         -1.4304385022        3.7768363241       -1.7352296580
 C          0.0242071426        2.4610903348        0.2208648949
 H         -0.5780728412        2.5155580976        1.1409990507
 C          0.5566146407        3.8445140177       -0.0945149095
 C         -0.2124910426        5.0654868326        0.3093633814
 C          1.0484820346        4.7015319123        1.0319882594
 H          1.9301859162        5.3044340754        0.8750367881
 H          0.9692125079        4.2975370694        2.0311644579
 H         -1.1487261418        4.9207003187        0.8270843430
 H         -0.1950717887        5.9247895411       -0.3440483954
 H          1.1139427246        3.8712607059       -1.0235090940
 O          2.0723079545        1.6675783163       -1.6372162336
