  62
        -98.93347997
 C         -2.3458969896       -0.7905314812        0.6470967607
 C         -2.4512567399       -0.0966190612       -0.5801269692
 C         -2.7583762605        1.3479288987       -0.5073377192
 C         -2.8757937007        1.9297797986        0.6997085609
 C         -3.1453777113        3.3756648484        1.0246339310
 C         -1.9115634917        4.2679140790        0.8240005809
 C         -1.1601807817        4.0364274294       -0.4839873391
 H         -0.2709641220        4.6724576897       -0.4699050491
 H         -0.8098366012        3.0024852995       -0.5168892092
 C         -1.9475372419        4.3586600991       -1.7523838491
 H         -1.2555554019        4.2639224094       -2.5928636291
 H         -2.2806164123        5.3980550589       -1.7112439590
 C         -3.1595320515        3.4678103286       -2.0373962590
 H         -3.4387979416        3.6244342085       -3.0832927690
 H         -4.0186677816        3.7643570682       -1.4415126290
 C         -2.9006480509        1.9737673687       -1.8740527491
 H         -3.7117997807        1.4223755384       -2.3647816691
 H         -1.9938592608        1.7014310691       -2.4263978592
 H         -2.2277695622        5.3108404288        0.8872214110
 H         -1.2154486516        4.0733118892        1.6440541909
 H         -3.9850007515        3.7416177581        0.4412404710
 H         -3.4308939413        3.4098159283        2.0785776010
 O         -2.7185819304        1.2282570686        1.8607661708
 C         -2.4376931898       -0.1225106513        1.8684799607
 O         -2.2966269395       -0.6125316813        3.0090104307
 O         -2.3015504097       -0.6415462011       -1.7050813393
 C         -1.9983629889       -2.2676154411        0.7019442006
 C         -0.8437021488       -2.5555804605       -0.2278123094
 C         -0.8312872884       -3.5862930005       -1.1573825095
 C          0.2827036316       -3.7945106000       -1.9530098296
 C          1.3994398713       -2.9890810895       -1.8387445696
 C          1.3919933609       -1.9449065995       -0.9183264495
 C          0.2817618408       -1.7472728000       -0.1166205995
 H          0.2854377605       -0.9397643901        0.6031170206
 N          2.4911515605       -1.0764587091       -0.8191468195
 S          2.7428840702       -0.1816654390        0.5823531805
 O          2.7005256106       -1.0412038091        1.7456373705
 O          1.8455383097        0.9472621606        0.5838531606
 C          4.4146600199        0.3690538617        0.2972154205
 C          5.4623801903       -0.3592292179        0.8288755004
 C          6.7617355701        0.0508169127        0.5748993003
 C          6.9904232796        1.1750649428       -0.2042166796
 C          5.9289546692        1.8972514324       -0.7291743695
 C          4.6271929894        1.4926805218       -0.4787335695
 H          3.7704606492        2.0252419515       -0.8580114794
 H          6.1103297588        2.7727462225       -1.3314617095
 H          8.0022895894        1.4921530533       -0.4011158797
 H          7.5883883303       -0.5066045670        0.9848792603
 H          5.2350952007       -1.2201449880        1.4368334703
 H          3.3462863306       -1.4609010387       -1.1949855096
 H          2.2643524413       -3.1512309891       -2.4634480296
 H          0.2794718019       -4.5980297799       -2.6739371196
 H         -1.6979037682       -4.2158731708       -1.2736451795
 H         -1.6340956588       -2.4298160310        1.7316492906
 C         -3.1839689885       -3.2022234816        0.5106284406
 C         -4.5847017587       -2.7414706622        0.7804246507
 C         -4.1520166386       -3.0422468819       -0.6214755493
 H         -4.5382778683       -3.9333734621       -1.0943366693
 H         -3.9881650390       -2.2201118318       -1.2993373493
 H         -5.2615892984       -3.4246253325        1.2714380507
 H         -4.7249907591       -1.7082945423        1.0644855208
 H         -2.9509025581       -4.2183193115        0.8142253906
