  62
        -98.94338890
 C         -1.8908603753       -0.6590495794       -0.7434939125
 C         -2.2185096125       -0.1004683653        0.5155663248
 C         -3.6474134514       -0.1050123163        0.8622769474
 C         -4.5336323882       -0.6415256915        0.0035015884
 C         -6.0198326790       -0.6701183601        0.2107337844
 C         -6.6903356321        0.5692425801       -0.3981468212
 C         -6.0262022824        1.8876444909       -0.0012756299
 H         -5.0218773878        1.9233884220       -0.4293682891
 H         -6.6013754148        2.6931136484       -0.4630271240
 C         -5.9396750482        2.1237803121        1.5130808472
 H         -6.6421251938        1.4695537014        2.0307212628
 H         -6.2393336971        3.1524216399        1.7244749392
 C         -4.5416807004        1.9362866073        2.1055202945
 H         -4.5478297387        2.3357990295        3.1231261782
 H         -3.8186965309        2.5189158270        1.5293499777
 C         -4.0389759410        0.4892678345        2.1859520629
 H         -3.1295942528        0.4858819324        2.7940563787
 H         -4.7864642820       -0.1328662559        2.6824990134
 H         -7.7380143335        0.5800682158       -0.0919636480
 H         -6.6553349113        0.4819402346       -1.4865728970
 H         -6.2316906822       -0.7241044719        1.2768153852
 H         -6.4175303549       -1.5627891618       -0.2751259175
 O         -4.1766809517       -1.1868902830       -1.1880259268
 C         -2.8522579723       -1.2031281200       -1.5940383776
 O         -2.6610524860       -1.7282086881       -2.7102791039
 O         -1.3649810480        0.3741597916        1.3086793027
 C         -0.4438478064       -0.6907307231       -1.1980710959
 C          0.4113448597       -1.4458231695       -0.2089871568
 C         -0.0754007677       -2.6225012933        0.3546624432
 C          0.6835648105       -3.3413284218        1.2568974011
 C          1.9549335759       -2.9158580843        1.5995735245
 C          2.4586027894       -1.7537968490        1.0298379119
 C          1.6858532714       -1.0235538334        0.1365275042
 H          2.0955512921       -0.1246747344       -0.2929760963
 N          3.7403634722       -1.2919261702        1.3610971951
 S          4.7261941096       -0.6295128862        0.1842208786
 O          4.5031181528       -1.2389101602       -1.1059700056
 O          6.0656304069       -0.7543767996        0.7199367120
 C          4.2926039265        1.0964272470        0.1352572868
 C          3.9766590819        1.7457509317        1.3121189302
 C          3.6863899348        3.1000929654        1.2711368433
 C          3.7252301693        3.7811236672        0.0638293580
 C          4.0508262467        3.1161453727       -1.1080623379
 C          4.3376975182        1.7602018749       -1.0747068686
 H          4.5839387250        1.2016613284       -1.9638406203
 H          4.0809646132        3.6468699047       -2.0466096839
 H          3.4993241191        4.8354826977        0.0357283935
 H          3.4294766504        3.6197876322        2.1801601482
 H          3.9519655757        1.1869414523        2.2326049907
 H          4.2578119929       -1.8837722276        1.9943895477
 H          2.5511095566       -3.4782779299        2.3020832079
 H          0.2860732947       -4.2459653025        1.6922770032
 H         -1.0645638577       -2.9636426850        0.0799106953
 H         -0.4328876998       -1.2501161789       -2.1458592592
 C          0.0440337222        0.7197673006       -1.4600426521
 C          1.0799743401        0.9848864636       -2.5093629129
 C         -0.3436240171        1.3901023050       -2.7426216267
 H         -0.5909175305        2.4407257646       -2.7223883493
 H         -0.9337792574        0.8153388866       -3.4419690094
 H          1.8083634931        1.7602171437       -2.3255117316
 H          1.4672858341        0.1384062234       -3.0568260782
 H          0.0594924170        1.3257467390       -0.5612211563
