  62
        -98.94483094
 C          2.1375794698        0.9500064201        0.5150348892
 C          2.3213510396        0.2502255696       -0.7027392905
 C          3.0379333900       -1.0278645101       -0.5994018002
 C          3.4089136804       -1.4941793696        0.6062427099
 C          4.1224228908       -2.7914611893        0.8745889003
 C          5.6459463808       -2.7137645489        0.7034643899
 C          6.1351065704       -2.6140840894       -0.7419561003
 H          7.2127075504       -2.7886983191       -0.7273391105
 H          5.6837483805       -3.4120510297       -1.3323126699
 C          5.8636186199       -1.2593110597       -1.4107190408
 H          5.6398964999       -0.5134291495       -0.6446437410
 H          6.7630225896       -0.9238586597       -1.9317225111
 C          4.7268599996       -1.2735086204       -2.4328184205
 H          4.5958398692       -0.2578906406       -2.8144067109
 H          4.9965806996       -1.9171373607       -3.2729372803
 C          3.3792726599       -1.7448894706       -1.8704829800
 H          3.3939437702       -2.8225171605       -1.7077591195
 H          2.5990605496       -1.5129523611       -2.5997911299
 H          6.0176972107       -1.8596144486        1.2740629894
 H          6.0685291011       -3.6186904186        1.1460650001
 H          3.7199826409       -3.5707569796        0.2264418907
 H          3.9047673112       -3.0568958689        1.9115676204
 O          3.1459890605       -0.8252620392        1.7615484497
 C          2.5176355402        0.4093294007        1.7429291294
 O          2.3457728804        0.9134055011        2.8731697392
 O          1.9159212193        0.6652941691       -1.8184198506
 C          1.4261942194        2.2938673099        0.5301052189
 C         -0.0114567106        2.0723720993        0.1260346793
 C         -0.6026104511        2.6361717087       -0.9954402308
 C         -1.9129465911        2.3292619382       -1.3226464203
 C         -2.6591273706        1.4667904584       -0.5407939798
 C         -2.0788533402        0.9051189690        0.5896559903
 C         -0.7686364802        1.2129549495        0.9141359899
 H         -0.3117511199        0.7671043199        1.7902204099
 N         -2.8351708798        0.0265346191        1.3958991709
 S         -3.3276551196       -1.4004686513        0.6490538216
 O         -3.5447328591       -2.3402370110        1.7282202020
 O         -2.3965672097       -1.8085535415       -0.3788282685
 C         -4.8964541099       -0.9733293221       -0.0754425982
 C         -5.8919957498       -0.5031607120        0.7589612218
 C         -7.1201040400       -0.1686524325        0.2113310820
 C         -7.3312563803       -0.3121140731       -1.1521763779
 C         -6.3223824704       -0.7885609032       -1.9753228679
 C         -5.0904963902       -1.1233024127       -1.4343935181
 H         -4.2730867202       -1.4897905427       -2.0346487382
 H         -6.4880640206       -0.8993147637       -3.0348854879
 H         -8.2880084005       -0.0510363036       -1.5761205578
 H         -7.9070015900        0.2026752775        0.8478265420
 H         -5.6860270996       -0.4109848115        1.8122179817
 H         -2.3713993595       -0.2001031004        2.2652394008
 H         -3.6778699306        1.2240053280       -0.7957187794
 H         -2.3582536114        2.7673729078       -2.2027147704
 H         -0.0334893214        3.3017266786       -1.6228149312
 H          1.4349910696        2.6284046303        1.5774144087
 C          2.1588779489        3.3122941297       -0.3151683817
 C          1.9548009886        4.7744053598       -0.0593512923
 C          3.2523338289        4.1226709603        0.3108267777
 H          4.1297834186        4.3452406603       -0.2775480726
 H          3.4613713292        3.9529647108        1.3573439477
 H          1.9428779582        5.4491129394       -0.9016351525
 H          1.2821354087        5.0517463899        0.7380721478
 H          2.3043487387        2.9848622494       -1.3373598316
