  62
        -98.94501627
 C         -0.7561033966       -1.6493454118        0.2110276119
 C         -1.0841476703       -0.4889493405       -0.5340113082
 C         -2.1242645991        0.3724717707        0.0506485246
 C         -2.6119539971        0.0898453618        1.2709751568
 C         -3.6856597130        0.8721789590        1.9697700543
 C         -5.0783185128        0.3024667872        1.6652779812
 C         -5.3362961517        0.0674863837        0.1768943364
 H         -4.6696711067       -0.7215794202       -0.1784996008
 H         -6.3579212036       -0.3063147871        0.0797515248
 C         -5.1606173964        1.3135087893       -0.7021570362
 H         -5.9974766753        1.3679889792       -1.4015447123
 H         -5.1965879310        2.2104471736       -0.0829839319
 C         -3.8792282416        1.3248868601       -1.5378237540
 H         -3.7924825597        0.3835332643       -2.0857741350
 H         -3.9626013060        2.1273728315       -2.2750379625
 C         -2.5752994082        1.5527832980       -0.7622144532
 H         -1.7797571027        1.7307751329       -1.4910153328
 H         -2.6694267762        2.4398663499       -0.1327490003
 H         -5.1822526884       -0.6521123583        2.1864664740
 H         -5.8270380261        0.9897890213        2.0635018789
 H         -3.5047854069        0.8164827303        3.0448552340
 H         -3.6299068507        1.9132716141        1.6574624271
 O         -2.2081895189       -0.9840183865        1.9974967695
 C         -1.2978910829       -1.8867087417        1.4756372795
 O         -1.0546844831       -2.8575229581        2.2238757203
 O         -0.5478134088       -0.1708757855       -1.6271817412
 C          0.2388621598       -2.6820007202       -0.2821247638
 C          1.6784194298       -2.2732443797       -0.0602262638
 C          2.6843509048       -3.2354234575       -0.0702086055
 C          4.0017552145       -2.8791786401        0.1491768328
 C          4.3447395269       -1.5606466269        0.3923835928
 C          3.3487611532       -0.5916552610        0.3957699901
 C          2.0298687605       -0.9514284477        0.1569094941
 H          1.2709446696       -0.1867232077        0.1703895100
 N          3.6616380446        0.7558082736        0.6048291240
 S          2.5497195649        1.8805769466        1.1255832231
 O          3.3617542581        2.9761424561        1.6169008249
 O          1.6137893390        1.3287077477        2.0802580258
 C          1.6977893471        2.4386450656       -0.3351921213
 C          0.6348686967        3.2984753008       -0.1412490292
 C         -0.0201432457        3.8191981823       -1.2447176459
 C          0.3930474197        3.4661679422       -2.5200847632
 C          1.4555986996        2.5958700545       -2.6973338197
 C          2.1220322086        2.0794650940       -1.5971214576
 H          2.9478614911        1.3969920955       -1.7107433753
 H          1.7671225734        2.3119632429       -3.6896042740
 H         -0.1229247128        3.8655007910       -3.3791155052
 H         -0.8518010681        4.4917131446       -1.1069920033
 H          0.3391082219        3.5346236991        0.8691999331
 H          4.6050242893        0.9622749692        0.8940752421
 H          5.3700882258       -1.2820372985        0.5802487254
 H          4.7708363554       -3.6362978214        0.1441830650
 H          2.4258924443       -4.2691698299       -0.2388612142
 H          0.0598220812       -3.5807993116        0.3262529141
 C          0.0167071369       -3.0389160913       -1.7422182408
 C          0.2039879643       -4.4474254888       -2.2151232719
 C         -1.1740167084       -3.8665448781       -2.1195060322
 H         -1.7035772327       -3.6233487972       -3.0281042307
 H         -1.8155065783       -4.2066482619       -1.3187428506
 H          0.6275864187       -4.6080066229       -3.1945086681
 H          0.4791567543       -5.1955699973       -1.4871738399
 H          0.2925326240       -2.2373572475       -2.4155129349
