  62
        -98.93954052
 C          2.6270284881        1.2624463771        0.0557077498
 C          2.7517223235        0.2538796930       -0.9297158704
 C          4.1006935270       -0.3037557099       -1.1042268441
 C          5.1144148807        0.1743753787       -0.3597656776
 C          6.5222178953       -0.3445248694       -0.3936314745
 C          6.7278314804       -1.4562726753        0.6449327164
 C          5.6531622263       -2.5430633890        0.6084479238
 H          5.9176718359       -3.2871660814        1.3629871874
 H          4.6957125745       -2.1100059086        0.9077837049
 C          5.4919529508       -3.2316785264       -0.7539879496
 H          5.4198987745       -4.3096133173       -0.5944987064
 H          6.3767392717       -3.0531020545       -1.3661206232
 C          4.2437008110       -2.8127393887       -1.5330940296
 H          4.1127223809       -3.5098338443       -2.3650626101
 H          3.3630350706       -2.9012074036       -0.8913112324
 C          4.2692003655       -1.3965284427       -2.1218156263
 H          5.1863456022       -1.2526909048       -2.6964525296
 H          3.4174425958       -1.3051142187       -2.8020814113
 H          6.7243440670       -1.0054459654        1.6400992460
 H          7.7082991367       -1.9064720101        0.4795588521
 H          6.7421394301       -0.7194696463       -1.3911762410
 H          7.1990079914        0.4810749470       -0.1674372916
 O          4.9592707105        1.1636141482        0.5576022001
 C          3.7136381233        1.7186300220        0.8008635974
 O          3.7035496029        2.5949702902        1.6895299670
 H         -1.2713861411        1.3407150003       -0.6126637550
 C         -0.9588056084        0.6589610365        0.1628689309
 C          0.2940701705        0.7944973775        0.7377941619
 C          0.6616680572       -0.0938246154        1.7454438901
 C         -0.1923913252       -1.1026292793        2.1460933867
 C         -1.4337576053       -1.2500151655        1.5521330822
 C         -1.8165469141       -0.3625682623        0.5567365881
 N         -3.0688902296       -0.5116774490       -0.0639139498
 S         -4.3938917127       -0.8800500869        0.9154065420
 O         -4.3997865878       -0.0272728155        2.0832404444
 O         -4.3954808465       -2.2983225481        1.1731172966
 C         -5.7426122594       -0.4608295552       -0.1709452775
 C         -6.1386428829       -1.3796381604       -1.1243500250
 C         -7.1698933381       -1.0455544383       -1.9876400334
 C         -7.7835658628        0.1941223486       -1.8844006841
 C         -7.3755356638        1.1052691642       -0.9218227566
 C         -6.3438411133        0.7782431619       -0.0559403700
 H         -5.9998379644        1.4513349688        0.7130120856
 H         -7.8567293975        2.0667672571       -0.8422156477
 H         -8.5868842991        0.4509552512       -2.5567489654
 H         -7.4919028951       -1.7517032625       -2.7359142549
 H         -5.6389195435       -2.3334909175       -1.1616144377
 H         -3.2763404168        0.2490744146       -0.6962730325
 H         -2.1092471298       -2.0348507410        1.8523412469
 H          0.1099936301       -1.7849568688        2.9269104490
 H          1.6327682545        0.0176531643        2.2099722250
 C          1.2677715758        1.8769810318        0.3371961644
 H          1.4077134561        2.5434853241        1.2009727470
 C          0.8147543464        2.7042332326       -0.8476377293
 C         -0.1105532812        3.8660716451       -0.6480334375
 C          1.3294485725        4.1040338014       -0.9878528546
 H          1.5748806087        4.4669517841       -1.9745912095
 H          1.9878704524        4.4688225601       -0.2127984785
 H         -0.8528257936        4.0718560105       -1.4046744648
 H         -0.4350453797        4.0794329820        0.3593843121
 H          0.7151348948        2.1152526709       -1.7522109835
 O          1.7897743187       -0.1598187018       -1.6278210983
