  62
        -98.94831362
 C         -1.3154720274       -1.5613838611        0.2169860266
 C         -1.6468037762       -0.5973240042        1.1994698493
 C         -2.9100986793        0.1183394095        0.9976789437
 C         -3.6731908213       -0.1660601353       -0.0735867166
 C         -5.0165371135        0.4345899188       -0.3889370490
 C         -4.9490314960        1.7758990127       -1.1307711438
 C         -4.4869469453        2.9614839588       -0.2831611289
 H         -4.6907822656        3.8671857889       -0.8577920301
 H         -5.0841701709        3.0119548933        0.6279585242
 C         -2.9956552136        2.9335561889        0.0779056526
 H         -2.4644630400        2.2427655111       -0.5815562150
 H         -2.5538243245        3.9180137555       -0.0933171122
 C         -2.6916398919        2.5549716658        1.5271562671
 H         -3.0713717227        3.3301643209        2.1972433958
 H         -1.6037586925        2.5192563790        1.6321746127
 C         -3.2684146031        1.2027862018        1.9677727320
 H         -2.8323902986        0.9433443923        2.9358099442
 H         -4.3504161291        1.2755710968        2.0789608541
 H         -4.2862423922        1.6667383804       -1.9924640100
 H         -5.9519157121        1.9923055779       -1.5063697410
 H         -5.5345625320       -0.2848209855       -1.0269446308
 H         -5.5866756685        0.5565932646        0.5325429908
 O         -3.3098679431       -1.0841827284       -1.0079490647
 C         -2.1070707650       -1.7711404466       -0.9114992371
 O         -1.8741349660       -2.5299879124       -1.8717620300
 H          0.4326749104        0.1778364909       -0.4277180538
 C          1.0780953234       -0.5101290459       -0.9511335101
 C          0.9663928627       -1.8729159499       -0.7114863035
 C          1.7846652879       -2.7387263432       -1.4256405228
 C          2.6801223785       -2.2424776203       -2.3579861270
 C          2.8055701993       -0.8819631732       -2.5735756834
 C          1.9956147478       -0.0071951293       -1.8582276195
 N          2.0934898914        1.3833694746       -2.0191915746
 S          1.9280071981        2.3590752211       -0.6665762231
 O          0.5403557578        2.4850936130       -0.3040171896
 O          2.5953263465        3.5905378828       -1.0356080849
 C          2.8633357778        1.5271459105        0.6052474612
 C          4.2377135215        1.5111574982        0.4584327015
 C          5.0074804385        0.8322201057        1.3874569852
 C          4.3918584623        0.1768679778        2.4435127175
 C          3.0135447934        0.2080126841        2.5805423495
 C          2.2363696733        0.8886507037        1.6551860244
 H          1.1610887140        0.9142383755        1.7446790180
 H          2.5266155770       -0.2978559449        3.3992524861
 H          4.9884723427       -0.3588234472        3.1649842962
 H          6.0804320354        0.8123636295        1.2849723809
 H          4.6783685174        2.0420868145       -0.3698433504
 H          2.8481211990        1.6915790539       -2.6143596674
 H          3.5144278867       -0.4983565080       -3.2911276086
 H          3.3009546490       -2.9264297382       -2.9163284251
 H          1.7164586424       -3.8010001022       -1.2587051450
 C         -0.0083029864       -2.3200021151        0.3511400744
 H          0.4057564692       -2.0079388074        1.3227786398
 C         -0.2385359637       -3.8154185407        0.3808865931
 C          0.7012351822       -4.7058125480        1.1363534604
 C         -0.6778262489       -4.4527270981        1.6641935716
 H         -1.4046748851       -5.2498235463        1.6211071504
 H         -0.7879609634       -3.8096443134        2.5252709181
 H          0.9216421327       -5.6826118301        0.7330178840
 H          1.5310597708       -4.2395187072        1.6454221211
 H         -0.6754213196       -4.1891815665       -0.5378236163
 O         -0.9219744411       -0.3538018514        2.2023370949
