  62
        -98.94738604
 C         -1.0569258193       -1.4824144287        0.3907507276
 C         -1.0708584287       -0.3644345084       -0.4777505150
 C         -1.9646267025        0.7341430657       -0.0844091550
 C         -2.6035645291        0.6736436765        1.0977336920
 C         -3.5643761576        1.7078818978        1.6081977709
 C         -5.0082297382        1.3694492614        1.2109117818
 C         -5.1758169179        1.0278968234       -0.2697240186
 H         -4.6431048690        0.0980731477       -0.4819646199
 H         -6.2374446077        0.8366139751       -0.4404579772
 C         -4.6907608873        2.1212856238       -1.2316690060
 H         -4.6085718219        3.0703036277       -0.7008401285
 H         -5.4383034065        2.2521775345       -2.0168340136
 C         -3.3634136250        1.8115650698       -1.9264066784
 H         -3.2287577782        2.5325661101       -2.7366081712
 H         -3.4104209916        0.8170686986       -2.3765736670
 C         -2.1114300773        1.8819026539       -1.0421658218
 H         -1.2366800676        1.8329530042       -1.6964137792
 H         -2.0904332006        2.8336399811       -0.5078279922
 H         -5.6445965684        2.2188116072        1.4661251235
 H         -5.3361869979        0.5101301374        1.8005143803
 H         -3.2848511416        2.6824788949        1.2127679218
 H         -3.4914022558        1.7351235838        2.6970378405
 O         -2.4825771219       -0.3733275834        1.9544838131
 C         -1.7363094675       -1.4873614261        1.6077037809
 O         -1.7529634026       -2.4041088082        2.4566353030
 O         -0.3826789076       -0.2901802449       -1.5288392844
 C         -0.2560125981       -2.7169565814        0.0282680036
 C          1.2103274447       -2.4053885177       -0.1490071356
 C          2.0294623585       -3.1590477081       -0.9829571149
 C          3.3789125573       -2.8727322443       -1.0875052487
 C          3.9366296502       -1.8221430634       -0.3817656763
 C          3.1238717698       -1.0592308291        0.4495546367
 C          1.7782987267       -1.3653068259        0.5725203238
 H          1.1659204303       -0.7725133876        1.2353648489
 N          3.6506161891        0.0218605690        1.1763863362
 S          2.7852493037        1.4286411676        1.3820423020
 O          3.7693265019        2.3754178523        1.8688369864
 O          1.6533768520        1.2147433825        2.2510608583
 C          2.2291699446        1.9920004850       -0.2195689261
 C          2.8188908205        1.5586957643       -1.3888592752
 C          2.3994798927        2.1038529690       -2.5923920287
 C          1.4210038284        3.0832824302       -2.6078326913
 C          0.8443855458        3.5154737351       -1.4239836395
 C          1.2467471949        2.9613963670       -0.2201074513
 H          0.8124848424        3.2549126237        0.7228116255
 H          0.0818735433        4.2778666748       -1.4349261427
 H          1.1004953721        3.5083272300       -3.5459421039
 H          2.8410571270        1.7599524504       -3.5137974847
 H          3.5807752008        0.7975082349       -1.3679576662
 H          4.6281917410        0.2158315890        1.0139399358
 H          4.9881842215       -1.5934854549       -0.4684028341
 H          4.0038201226       -3.4698154531       -1.7337595752
 H          1.6085068739       -3.9743485635       -1.5482904593
 H         -0.3513628646       -3.4014731501        0.8852752771
 C         -0.8623072340       -3.3799846277       -1.1950561130
 C         -0.8991607725       -4.8728326396       -1.3186839902
 C         -2.1612943081       -4.1122497197       -1.0479660194
 H         -2.8957718071       -4.0270142205       -1.8346683179
 H         -2.5881339471       -4.1640321615       -0.0563143574
 H         -0.7693674169       -5.3128473419       -2.2960624510
 H         -0.4808988963       -5.4544072429       -0.5108066953
 H         -0.7183993260       -2.7938762813       -2.0954479406
