  62
        -98.93837892
 C          1.7872071979        0.6355224872       -0.0765886812
 C          2.8971620809        1.3071104062        0.4846850394
 C          4.2193876845        0.9640868849       -0.0667511090
 C          4.2966120895        0.0592255776       -1.0581414441
 C          5.5400434779       -0.4698211294       -1.7181304461
 C          6.0099458650       -1.7642418561       -1.0326537656
 C          6.9369267652       -1.5598051738        0.1651163734
 H          7.0857468764       -2.5368579766        0.6306568081
 H          7.9102601368       -1.2146889696       -0.1898951895
 C          6.4289654857       -0.5812848719        1.2272647171
 H          6.9568296741       -0.7952144469        2.1586850031
 H          5.3671964788       -0.7562625495        1.4102332150
 C          6.6594392644        0.8902486669        0.8524507628
 H          7.3426775425        0.9387219838        0.0048009741
 H          7.1567123836        1.4002788043        1.6801008515
 C          5.3883755752        1.6929970830        0.5382455720
 H          4.9941495310        2.1263884603        1.4628177679
 H          5.6492318179        2.5337085103       -0.1131570473
 H          6.5365454400       -2.3780015738       -1.7663644613
 H          5.1211172770       -2.3193715635       -0.7213035099
 H          6.3246987585        0.2808705855       -1.7220294824
 H          5.2690559997       -0.7016835101       -2.7502643484
 O          3.1993411199       -0.5601376720       -1.5758976788
 C          1.9241771133       -0.2975016095       -1.1035921717
 O          1.0219019805       -0.9447999564       -1.6682817009
 O          2.7900050718        2.1501837626        1.4162064139
 C          0.3982479645        0.9469699351        0.4491614340
 C         -0.2864569211       -0.3127835849        0.9161025425
 C          0.4072464234       -1.1887376400        1.7475411468
 C         -0.1794589578       -2.3582792024        2.1883806921
 C         -1.4727289152       -2.6781068276        1.8142848500
 C         -2.1816461722       -1.8029101832        1.0003342402
 C         -1.5917626295       -0.6226407357        0.5668593980
 H         -2.1534237780        0.0345631822       -0.0749797467
 N         -3.5095006578       -2.0807766668        0.6593971775
 S         -4.2693854520       -1.4429765190       -0.6794720798
 O         -5.4779033916       -2.2319610827       -0.8015366798
 O         -3.4198848383       -1.4119302875       -1.8463065685
 C         -4.7122500038        0.2124926690       -0.1925640811
 C         -4.7325443002        1.2030281638       -1.1542807734
 C         -5.1207212634        2.4838977543       -0.7928235490
 C         -5.4781195486        2.7516197448        0.5194726875
 C         -5.4532233776        1.7457162405        1.4732178685
 C         -5.0723540628        0.4617995607        1.1169633638
 H         -5.0421549687       -0.3412325362        1.8340453461
 H         -5.7303551591        1.9575664211        2.4933091777
 H         -5.7758221879        3.7498343872        0.7989763700
 H         -5.1411743046        3.2665153207       -1.5347728210
 H         -4.4330896357        0.9539737413       -2.1603333004
 H         -3.8446645175       -3.0005034899        0.9016946609
 H         -1.9293507419       -3.5971953092        2.1481540079
 H          0.3753718395       -3.0319431209        2.8241416481
 H          1.4209875113       -0.9434275781        2.0339543666
 H          0.5576361217        1.5965215571        1.3231682834
 C         -0.3936931432        1.7170368067       -0.5867248242
 C         -1.4322417858        2.7085076983       -0.1567701437
 C         -0.1391519706        3.1851646814       -0.7448783352
 H         -0.1453908555        3.6045462028       -1.7397676598
 H          0.5913397304        3.6325211931       -0.0868053898
 H         -2.3313635736        2.8009567954       -0.7467883294
 H         -1.5863793475        2.8407269740        0.9032955379
 H         -0.5753581804        1.1386977784       -1.4869819892
