  62
        -98.94315482
 C          2.5842407534       -0.0732242882       -0.3681236434
 C          2.6857631909       -1.0900571671        0.6172050805
 C          2.1125356249       -2.3939263773        0.2768887927
 C          1.5331774832       -2.5682454189       -0.9240448798
 C          0.8571973492       -3.8215596072       -1.4091522470
 C         -0.5935411383       -3.9495711240       -0.9232834454
 C         -0.7533152759       -4.3453939916        0.5457131205
 H         -1.7926086496       -4.6511241195        0.6819758898
 H         -0.1266127869       -5.2123664234        0.7593772393
 C         -0.4395235367       -3.2188187321        1.5402044075
 H         -0.4762608513       -2.2565836123        1.0234027225
 H         -1.2115422004       -3.1945644201        2.3135387264
 C          0.9039601820       -3.3547540262        2.2575870026
 H          1.0430786336       -2.4724241080        2.8875168196
 H          0.8859517912       -4.2347090901        2.9055651172
 C          2.1176773747       -3.4642347455        1.3267527645
 H          3.0211152392       -3.3324781480        1.9278466115
 H          2.1473194053       -4.4490451014        0.8607135157
 H         -1.1010849492       -2.9967679657       -1.0979224031
 H         -1.0801376410       -4.7090192636       -1.5403529000
 H          0.8549925565       -3.7726069194       -2.5002626951
 H          1.4293691255       -4.6969574597       -1.0997199763
 O          1.5095796816       -1.5928964640       -1.8674588010
 C          1.9885979495       -0.3155096650       -1.6065518452
 O          1.8416963161        0.4681809887       -2.5669505031
 O          3.2350144309       -0.9086771431        1.7382424279
 C          3.0236072677        1.3140574792        0.0708340779
 C          1.8581837065        1.9663192081        0.7811074866
 C          2.0020580056        2.5398784186        2.0384606622
 C          0.9028952171        3.0474609769        2.7093016490
 C         -0.3620852146        2.9568866869        2.1576467238
 C         -0.5135390474        2.3928017261        0.8954504540
 C          0.5979262711        1.9405858773        0.2020629138
 H          0.4600297035        1.5199695002       -0.7828257398
 N         -1.7770942761        2.2527737599        0.3014796910
 S         -2.0548982231        0.8416218153       -0.5952262988
 O         -1.3161438585       -0.2631662381       -0.0315828384
 O         -1.8331140396        1.1359525222       -1.9888954106
 C         -3.8022015233        0.6117876820       -0.3159008941
 C         -4.2219875290       -0.3145767190        0.6194003325
 C         -5.5807014424       -0.4670157177        0.8488030803
 C         -6.4906456417        0.3081216861        0.1458969497
 C         -6.0540297532        1.2339633801       -0.7903892541
 C         -4.6973863331        1.3895750213       -1.0264315940
 H         -4.3105021553        2.0863080787       -1.7518266657
 H         -6.7642681040        1.8325044489       -1.3375853160
 H         -7.5470705308        0.1877472166        0.3264821192
 H         -5.9223676717       -1.1890319441        1.5727319935
 H         -3.4767148670       -0.8983958290        1.1358225067
 H         -2.5399743455        2.4589182798        0.9318532369
 H         -1.2259971178        3.3130067741        2.6979418991
 H          1.0279906647        3.4894320810        3.6861037189
 H          2.9775538760        2.5613527796        2.5009666431
 H          3.8180983323        1.1544230119        0.8137040458
 C          3.5624809197        2.2102171612       -1.0232308476
 C          4.4926644321        3.3264178573       -0.6551666895
 C          5.0117202767        2.1305145293       -1.3941229704
 H          5.2797175049        2.2364483499       -2.4342862742
 H          5.6258901583        1.4240021228       -0.8550334710
 H          4.4062720765        4.2614884464       -1.1865853144
 H          4.7616117551        3.4332782070        0.3846528612
 H          2.8543743927        2.3857677153       -1.8225653929
