  62
        -98.93916963
 C         -0.9164690002       -1.5699769853        0.0212383848
 C         -1.5133393712       -0.7225357559        0.9888488603
 C         -2.4674857453        0.2809396793        0.4948763226
 C         -2.7069172918        0.3547727629       -0.8267300916
 C         -3.6870477492        1.2833121009       -1.4857473050
 C         -5.1248494216        0.7586541337       -1.2976732074
 C         -6.0153336946        1.6566701657       -0.4384136429
 H         -6.3189215860        2.5236680026       -1.0288869401
 H         -6.9169468575        1.0891773635       -0.1983529473
 C         -5.3875130165        2.1704553340        0.8606519913
 H         -4.7292094846        3.0124848731        0.6415649613
 H         -6.2019208357        2.5627666880        1.4733431617
 C         -4.6065498015        1.1362319022        1.6813998169
 H         -4.9497012278        0.1268605031        1.4537297464
 H         -4.8169969249        1.3133493591        2.7380161429
 C         -3.0773218604        1.2044772186        1.5135033669
 H         -2.7776301019        2.2341895863        1.2977216886
 H         -2.6135128002        0.9165098428        2.4616688242
 H         -5.5982763896        0.6392377857       -2.2733984781
 H         -5.0697040772       -0.2368798616       -0.8521594963
 H         -3.5834872445        2.2818861493       -1.0662615069
 H         -3.4296955503        1.3246692274       -2.5447129386
 O         -2.1250471310       -0.4777327395       -1.7258445228
 C         -1.2060263573       -1.4462837625       -1.3391591783
 O         -0.7518568285       -2.1069638272       -2.2928652005
 H          1.1909539514       -0.7756525695       -1.2299129067
 C          1.8924161002       -1.1027963973       -0.4788204065
 C          1.5115496235       -2.0229234532        0.4848209933
 C          2.4589161589       -2.4384359134        1.4155636303
 C          3.7491449620       -1.9434900460        1.3788074091
 C          4.1142121232       -0.9990833276        0.4352131032
 C          3.1752570017       -0.5731105077       -0.4952342480
 N          3.4900839494        0.4125271800       -1.4498168407
 S          2.4603235920        1.7306780804       -1.5658433729
 O          1.2329755488        1.3632103492       -2.2235853588
 O          3.2533319556        2.7499875335       -2.2196756826
 C          2.1545975264        2.1849422602        0.1303860734
 C          1.0287513180        1.7052122142        0.7669041039
 C          0.8554475686        1.9679618091        2.1164328274
 C          1.8031968363        2.7135553804        2.7998592268
 C          2.9221853356        3.2040495427        2.1427866336
 C          3.1079041255        2.9299232033        0.7977738902
 H          3.9629296498        3.2907297977        0.2492329215
 H          3.6526893403        3.7899720714        2.6768935087
 H          1.6655696713        2.9128536351        3.8508180293
 H         -0.0097657629        1.5653749521        2.6194720683
 H          0.3047762211        1.1326859481        0.2081012777
 H          4.4499632729        0.7267613971       -1.4130184541
 H          5.1140929654       -0.5933739333        0.4180686847
 H          4.4741352194       -2.2795615283        2.1038300256
 H          2.1753911933       -3.1490604726        2.1763850428
 C          0.1010652188       -2.5691867102        0.5365787578
 H         -0.1505475705       -2.7194713447        1.5963132299
 C          0.0445134966       -3.9144296166       -0.1626788853
 C          0.3697343133       -5.1665508688        0.5927559329
 C         -1.0449838709       -4.8810810958        0.1892898068
 H         -1.4912991855       -5.4616853119       -0.6037315504
 H         -1.7439214862       -4.5841069234        0.9578260268
 H          0.9031863485       -5.9506492170        0.0780292061
 H          0.6181383363       -5.0778820658        1.6390711684
 H          0.3397447328       -3.8623180365       -1.2031094632
 O         -1.2525690534       -0.7998526084        2.2200799310
