  62
        -98.94366329
 C         -1.7117187025       -0.4271225206        0.6155358649
 C         -2.9455983309       -0.3515581123        1.3041503371
 C         -4.1452447281       -0.6351985245        0.5054622061
 C         -4.0086824486       -0.9551716177       -0.7945709150
 C         -5.1479155510       -1.2106462550       -1.7376679234
 C         -5.5804341937        0.0801889018       -2.4471007242
 C         -5.7995709290        1.2610907225       -1.5013916301
 H         -4.8429794149        1.5420617951       -1.0547448154
 H         -6.1307358847        2.1067587294       -2.1081005688
 C         -6.8222366434        1.0005134987       -0.3865589765
 H         -7.4434980037        0.1427552109       -0.6466866449
 H         -7.4825362605        1.8668108118       -0.3076969714
 C         -6.2099192374        0.7804438735        0.9980573875
 H         -5.5151698853        1.5932298969        1.2248967610
 H         -7.0149069628        0.8239208647        1.7365902842
 C         -5.4756968061       -0.5513237609        1.1994370525
 H         -5.2636033889       -0.6549405268        2.2676693336
 H         -6.1222795042       -1.3771984084        0.8962417533
 H         -4.8050685439        0.3569105367       -3.1651598194
 H         -6.4998890812       -0.1208168168       -2.9999202594
 H         -5.9848040988       -1.6314215168       -1.1837990337
 H         -4.8191198537       -1.9329640380       -2.4865625360
 O         -2.8052318075       -1.0349261085       -1.4167052577
 C         -1.6273593257       -0.7599476527       -0.7366178918
 O         -0.5995966690       -0.8503079813       -1.4327140226
 O         -3.0393637359       -0.0553001086        2.5262101190
 C         -0.4295393211       -0.1215919695        1.3690760866
 C          0.2689973305        1.0504926755        0.7260988438
 C         -0.4463071928        2.2289568180        0.5245195911
 C          0.1450945073        3.3186214437       -0.0828597265
 C          1.4644298299        3.2598532974       -0.4977618074
 C          2.1894709043        2.0921658252       -0.2960992285
 C          1.5914230065        0.9992667801        0.3180056919
 H          2.1705746595        0.1054833198        0.4716367917
 N          3.5130162945        1.9917556741       -0.7388458049
 S          4.6343014412        1.0333013838        0.0372863008
 O          4.4935895496        1.0994384677        1.4734263663
 O          5.9074650542        1.4761027766       -0.4906933261
 C          4.3083796484       -0.6202012730       -0.5361057917
 C          3.9551929436       -0.8194756422       -1.8554638852
 C          3.7230581546       -2.1121011007       -2.2969065333
 C          3.8524760817       -3.1775512910       -1.4193496545
 C          4.2157417682       -2.9615676272       -0.0991163013
 C          4.4482775530       -1.6710808275        0.3487290438
 H          4.7237256963       -1.4546727498        1.3690112522
 H          4.3152967182       -3.7920985280        0.5817176344
 H          3.6663097475       -4.1820196281       -1.7657570030
 H          3.4351760081       -2.2836439565       -3.3215969072
 H          3.8538791336        0.0298177633       -2.5102346072
 H          3.9139831532        2.8324026903       -1.1258279555
 H          1.9266886366        4.1086008105       -0.9783532365
 H         -0.4230238926        4.2241983419       -0.2347774741
 H         -1.4774809979        2.2747977759        0.8480247507
 H         -0.7472709395        0.1807131293        2.3781629358
 C          0.4315327634       -1.3616068132        1.4809343138
 C          1.4107037012       -1.4978166616        2.6070279935
 C          0.1660851337       -2.3318738373        2.5912346456
 H          0.2551268353       -3.3877313291        2.3851612919
 H         -0.6244734128       -2.0874468830        3.2856678140
 H          2.3554961440       -1.9810491080        2.4106844563
 H          1.4746459666       -0.6856379636        3.3154989015
 H          0.7043105644       -1.7700713707        0.5139894428
