  62
        -98.93719139
 C         -1.6356980089       -1.4699757744       -0.0138178414
 C         -2.9152930936       -1.2188089709        0.5458093613
 C         -3.7019918269       -0.1064210753       -0.0202222737
 C         -3.1656656217        0.6190746049       -1.0182147433
 C         -3.7446647079        1.8265193669       -1.7048609936
 C         -3.6276974978        3.1026356950       -0.8529471940
 C         -3.9285388197        2.9169013870        0.6324999184
 H         -3.2758869759        2.1414511713        1.0381364424
 H         -3.6766950614        3.8506276575        1.1420158591
 C         -5.3811154402        2.5841668573        0.9656283672
 H         -6.0214356982        3.4032340292        0.6297096634
 H         -5.4609906801        2.5260260499        2.0542442510
 C         -5.9224508457        1.2802344314        0.3775691760
 H         -6.1249740453        1.3882975058       -0.6846431090
 H         -6.8855717245        1.0825219265        0.8576663083
 C         -5.0541816727        0.0512577266        0.6315517905
 H         -4.8782483169       -0.0448045060        1.7089242952
 H         -5.6276114006       -0.8415844261        0.3524288587
 H         -4.2942149430        3.8591993230       -1.2700757058
 H         -2.6033442512        3.4726244542       -0.9390124927
 H         -4.7772607588        1.6351810955       -1.9818453731
 H         -3.1760963998        1.9696131566       -2.6265275659
 O         -1.9309447668        0.3500433529       -1.5224748599
 C         -1.1374036587       -0.6853856970       -1.0550956359
 O         -0.0517417007       -0.7806353429       -1.6567188435
 O         -3.3881228511       -1.8953035760        1.4980819106
 C         -0.8014253761       -2.5609818585        0.6390853071
 C          0.5062021680       -1.9558657874        1.0788431302
 C          0.5882553903       -1.2938315852        2.3001929805
 C          1.7525051559       -0.6504277405        2.6779765591
 C          2.8437801026       -0.6197353221        1.8272635254
 C          2.7602556111       -1.2579807347        0.5966430433
 C          1.6126995045       -1.9554268126        0.2445120004
 H          1.5613758644       -2.4534296907       -0.7107310797
 N          3.8323640518       -1.1618810860       -0.3075254894
 S          4.5536554777        0.3399836062       -0.4702672455
 O          5.0199471660        0.3965872767       -1.8389731169
 O          5.5804746603        0.4808165433        0.5352745869
 C          3.2913560994        1.5752607745       -0.1886724123
 C          3.5784904530        2.6308479416        0.6545456118
 C          2.6151484721        3.6024782169        0.8707499040
 C          1.3809968796        3.5011445503        0.2470741750
 C          1.1099379224        2.4370000318       -0.5979934590
 C          2.0720093312        1.4655437693       -0.8259811431
 H          1.8523648783        0.6271882029       -1.4681008699
 H          0.1495439467        2.3397652071       -1.0804830858
 H          0.6264832284        4.2522546755        0.4214018240
 H          2.8265209982        4.4309884600        1.5274788367
 H          4.5458697736        2.6638099706        1.1293081158
 H          3.6230768454       -1.5555473138       -1.2138200433
 H          3.7531342610       -0.1051028947        2.0934815044
 H          1.8077337243       -0.1535921812        3.6343976300
 H         -0.2770756491       -1.2817253679        2.9479765113
 H         -1.3738978527       -2.8349647262        1.5392024821
 C         -0.6273637303       -3.8397913425       -0.1650010728
 C         -1.7990920743       -4.4444672557       -0.8785585375
 C         -0.6438275450       -3.9004764730       -1.6614482343
 H          0.0204512599       -4.6022490136       -2.1453112130
 H         -0.7782698460       -2.9828460234       -2.2107746188
 H         -1.9391844689       -5.5139738415       -0.8356417195
 H         -2.7209036215       -3.8807546359       -0.8761324820
 H          0.0428228785       -4.5327889068        0.3355186071
