  62
        -98.94273253
 C          2.5682526794        0.1364046600       -0.2972649102
 C          2.7181153596       -0.8237014799        0.7367292199
 C          2.3719185597       -2.2100584100        0.4068716100
 C          1.9306017197       -2.4954568201       -0.8309530200
 C          1.4998680999       -3.8554691802       -1.2980345399
 C         -0.0063647401       -4.0689294903       -1.0989354399
 C         -0.5065659101       -3.7274579103        0.3052010001
 H         -0.4432205702       -2.6465277203        0.4552315201
 H         -1.5677619401       -3.9860839604        0.3376263302
 C          0.2285622400       -4.4529986602        1.4410462101
 H         -0.5115720699       -4.8093556902        2.1605396002
 H          0.7468466901       -5.3284621501        1.0475204801
 C          1.2181646399       -3.5824703400        2.2178136801
 H          0.7317173698       -2.6457641001        2.5025570900
 H          1.4864953400       -4.1090897100        3.1378189301
 C          2.5235523999       -3.2419197599        1.4884395700
 H          2.9735077000       -4.1541345899        1.0907580000
 H          3.2114431998       -2.8079357298        2.2200561300
 H         -0.5429203502       -3.4358139304       -1.8104748499
 H         -0.2370452800       -5.1119205404       -1.3268136898
 H          1.7306598498       -3.9403253702       -2.3616481899
 H          2.0599514000       -4.6129341901       -0.7525162899
 O          1.8074368296       -1.5568993201       -1.8015215901
 C          2.0902099994       -0.2177182001       -1.5595828901
 O          1.8911498193        0.5124253398       -2.5509686801
 O          3.1396923696       -0.5281009998        1.8887346399
 C          2.8575811593        1.5756557901        0.0912113998
 C          1.6212826292        2.2030908999        0.6952454498
 C          1.7016998592        3.0004796000        1.8311344797
 C          0.5583223191        3.5338257099        2.3987120898
 C         -0.6873281409        3.2566989897        1.8648633498
 C         -0.7766717708        2.4649624797        0.7257715098
 C          0.3754533792        1.9706218898        0.1335647598
 H          0.2845553293        1.3687062897       -0.7582400701
 N         -2.0184041108        2.1400533895        0.1552700699
 S         -2.1825222706        0.5617984395       -0.4395014400
 O         -1.4685557305       -0.3616312704        0.4115992500
 O         -1.8419897507        0.5545547994       -1.8399649000
 C         -3.9436506006        0.3340095193       -0.2667225600
 C         -4.4375038705       -0.4570757008        0.7524377101
 C         -5.8104734705       -0.5964578809        0.8869610301
 C         -6.6604908906        0.0576918589        0.0082688801
 C         -6.1495783607        0.8487123390       -1.0105360799
 C         -4.7785205707        0.9899457191       -1.1524927500
 H         -4.3342312208        1.5838579691       -1.9342909300
 H         -6.8130653608        1.3539651189       -1.6936138199
 H         -7.7279876105       -0.0514647812        0.1160904802
 H         -6.2099108504       -1.2136593609        1.6754053302
 H         -3.7366845304       -0.9484261506        1.4082115801
 H         -2.8013120808        2.4019950994        0.7394538299
 H         -1.5831432309        3.6439944896        2.3259354198
 H          0.6346483791        4.1501977299        3.2814274397
 H          2.6658366091        3.1823726601        2.2817001797
 H          3.6180936793        1.5199629602        0.8835487898
 C          3.3931898091        2.4476945201       -1.0258949403
 C          4.2536923190        3.6269897002       -0.6878110204
 C          4.8566616091        2.4226670802       -1.3449216703
 H          5.1553878791        2.4871709602       -2.3800705303
 H          5.4850081692        1.7768360603       -0.7489928103
 H          4.1392409589        4.5276842902       -1.2707625404
 H          4.4832543590        3.8011385703        0.3521632296
 H          2.7062856191        2.5460055200       -1.8564733903
