  62
        -98.93136982
 C         -2.0823300805       -1.1221916393        0.2045033398
 C         -2.4950493403       -0.0906326895        1.0799454301
 C         -2.8202734101        1.2145214808        0.4773008505
 C         -2.6877079800        1.3663016011       -0.8522990695
 C         -2.9237374998        2.5941920814       -1.6954875892
 C         -4.1739150797        3.4289239015       -1.3787716189
 C         -3.8580797095        4.7748934813       -0.7240231685
 H         -2.9641786094        5.1883251613       -1.1954804784
 H         -4.6819938593        5.4631992315       -0.9248118983
 C         -3.6536610094        4.7295600808        0.7890234514
 H         -3.3023183393        5.7144249807        1.1053284217
 H         -4.6138140895        4.5535561509        1.2787771714
 C         -2.6618069196        3.6747616005        1.2839117911
 H         -2.2995339996        3.9889897302        2.2653960312
 H         -1.7918223796        3.6243136906        0.6287912011
 C         -3.2785243099        2.2762691406        1.4395295608
 H         -3.0327326599        1.8754200903        2.4280425406
 H         -4.3698646898        2.3424938108        1.4026670608
 H         -4.8554113198        2.8532704615       -0.7545958891
 H         -4.6869781097        3.6263664119       -2.3213272589
 H         -2.9740733899        2.2246469517       -2.7223941393
 H         -2.0300808197        3.2212817112       -1.6358439490
 O         -2.2588420902        0.3532808813       -1.6568594498
 C         -1.9216628204       -0.8955531589       -1.1623737801
 O         -1.5150630106       -1.6884552988       -2.0322765904
 O         -2.5809957303       -0.2509983498        2.3295214601
 C         -1.6773918607       -2.4506499795        0.8160343594
 C         -0.3187824907       -2.8614167396        0.3014505093
 C         -0.0088850410       -4.1416679995       -0.1356645110
 C          1.2703018590       -4.4386771996       -0.5760466111
 C          2.2569558291       -3.4724250598       -0.6008783709
 C          1.9524815694       -2.1811458199       -0.1780545005
 C          0.6827157894       -1.8968815098        0.2908862496
 H          0.4592492296       -0.8965868598        0.6351829099
 N          2.9182265795       -1.1650445300       -0.2607767002
 S          2.6913426498        0.3332033198        0.4577242502
 O          2.5225595898        0.1971928495        1.8893000801
 O          1.6512971999        1.0424532902       -0.2462858196
 C          4.2739664499        1.0745196697        0.1048465804
 C          4.4954683000        1.5888113900       -1.1587989795
 C          5.7316291001        2.1433747498       -1.4498260294
 C          6.7209872801        2.1741760294       -0.4779812393
 C          6.4838278900        1.6561809791        0.7862236505
 C          5.2497048999        1.0990933692        1.0832280004
 H          5.0157667199        0.6928641690        2.0540758703
 H          7.2533477500        1.6846710588        1.5406365605
 H          7.6816527302        2.6075901093       -0.7069934092
 H          5.9180404202        2.5492115301       -2.4310441392
 H          3.6928944700        1.5503772903       -1.8772253395
 H          3.8713457695       -1.4925386502       -0.2027712203
 H          3.2486309391       -3.7032135399       -0.9577432009
 H          1.4987526088       -5.4389791096       -0.9114479714
 H         -0.7690633511       -4.9051265894       -0.1476234112
 H         -1.5682143006       -2.2281662498        1.8922841395
 C         -2.7282871609       -3.5461349793        0.7068898491
 C         -4.1657507908       -3.2207665490        0.4342129792
 C         -3.3479345709       -3.9259999688       -0.6035181610
 H         -3.5510767611       -4.9702136888       -0.7910101312
 H         -3.0360426808       -3.3738703587       -1.4758237208
 H         -4.9253275309       -3.7780049190        0.9619433991
 H         -4.4211080706       -2.1843703189        0.2656299595
 H         -2.5504857110       -4.3519443995        1.4124956189
