  62
        -98.93609398
 C         -2.3112749852       -1.0946021834        0.1481337058
 C         -3.5542280830       -0.9271856552        0.8111019653
 C         -4.5210746070        0.0036759870        0.2052921359
 C         -4.1762633895        0.6778993239       -0.9069935430
 C         -4.9539586984        1.6576235537       -1.7605812053
 C         -6.2358229770        2.3018763126       -1.2388247583
 C         -6.0387209457        3.2618390537       -0.0662303407
 H         -7.0232607071        3.5849025333        0.2789709494
 H         -5.5058059309        4.1455192201       -0.4264093083
 C         -5.2552620633        2.7035695987        1.1193157918
 H         -5.1935681860        3.4886525191        1.8778961613
 H         -4.2325541807        2.4774689863        0.8095459976
 C         -5.8606283360        1.4662739658        1.7796793156
 H         -6.8967658105        1.6679661386        2.0578534169
 H         -5.2983811414        1.2760895376        2.6977657072
 C         -5.8196664503        0.1782605561        0.9387228517
 H         -6.6587439945        0.1284804583        0.2488712609
 H         -5.9041145640       -0.6722432975        1.6213036758
 H         -6.9659386786        1.5383743808       -0.9869955565
 H         -6.6535693495        2.8775284593       -2.0693202068
 H         -4.2417340558        2.4437907819       -2.0312978572
 H         -5.1881918418        1.1231114114       -2.6880790118
 O         -2.9582888311        0.5066535941       -1.4966165011
 C         -1.9975163442       -0.3628539803       -0.9973752211
 O         -0.9491416017       -0.3769135088       -1.6697428216
 H          0.9205660691       -2.0975848231       -0.7928788849
 C          1.0413325414       -1.4553210509        0.0655283801
 C          0.0057194902       -1.3288841187        0.9770860291
 C          0.1689145664       -0.4686528275        2.0587551902
 C          1.3428641336        0.2420067751        2.2235179033
 C          2.3714735262        0.1211642394        1.3053722007
 C          2.2087983355       -0.7176973113        0.2115320182
 N          3.2392891101       -0.8335425668       -0.7365012963
 S          4.0018786056        0.5639591837       -1.2685478569
 O          3.1428639564        1.7225805249       -1.1935257755
 O          4.5258169347        0.2319910767       -2.5760818773
 C          5.3672163692        0.7448052235       -0.1365110587
 C          5.5766514366        1.9512858905        0.5022035204
 C          6.6520844855        2.0745442458        1.3683789740
 C          7.4958719617        0.9948655764        1.5785211554
 C          7.2735964589       -0.2095618660        0.9276487144
 C          6.2011299940       -0.3386636902        0.0597906033
 H          5.9954885901       -1.2554316240       -0.4668655641
 H          7.9316779138       -1.0471642496        1.0938277424
 H          8.3313886582        1.0928848925        2.2535029775
 H          6.8258419490        3.0104962808        1.8747029502
 H          4.8906986563        2.7617287520        0.3122943240
 H          2.9932803842       -1.4202971459       -1.5211056419
 H          3.2826609941        0.6858914691        1.4167418009
 H          1.4580321710        0.9014969954        3.0703205671
 H         -0.6428426370       -0.3557166524        2.7641843240
 C         -1.3084316883       -2.0405849658        0.7876656727
 H         -1.7317268058       -2.2471362906        1.7836924646
 C         -1.1615843179       -3.3873678253        0.0956853500
 C         -2.3650401845       -4.0919349833       -0.4537037559
 C         -1.3069384577       -3.5807799313       -1.3827059458
 H         -0.6611084557       -4.2998159591       -1.8661897884
 H         -1.5251135171       -2.7170193694       -1.9907310523
 H         -3.3068451913       -3.5638998462       -0.4165785894
 H         -2.4535579010       -5.1577200025       -0.3071066299
 H         -0.4225473641       -4.0096918032        0.5916740919
 O         -3.8515132591       -1.5399032901        1.8707089073
