  62
        -98.93429397
 C         -2.2319166571       -1.0216065871        0.4908882901
 C         -2.3665748423       -0.0518122651       -0.5308166750
 C         -3.3287701714        1.0394864111       -0.2772521962
 C         -3.9825049792        1.0933952830        0.8971061439
 C         -4.9823599685        2.0946611935        1.4368948922
 C         -5.6865092081        3.0768759167        0.5038300472
 C         -6.6421948949        2.4353626702       -0.5013264055
 H         -7.4963828597        2.0249579496        0.0432041708
 H         -7.0158730644        3.2197592829       -1.1631441291
 C         -6.0517662323        1.3110252777       -1.3488424453
 H         -6.8338611046        0.9574550116       -2.0261167229
 H         -5.7813755572        0.4705878235       -0.7061299175
 C         -4.8416621067        1.6976074392       -2.1973951257
 H         -5.0856117673        2.5672549247       -2.8103536053
 H         -4.6327171132        0.8620764493       -2.8708117386
 C         -3.5501882897        1.9945201413       -1.4143905664
 H         -2.7033664179        1.8622384215       -2.0941499695
 H         -3.5276099573        3.0226616016       -1.0611635748
 H         -6.2763881210        3.7406482989        1.1419292023
 H         -4.9584634847        3.6988585477       -0.0085355350
 H         -5.7355725585        1.5030550480        1.9670696466
 H         -4.4475199589        2.6679289786        2.2025266459
 O         -3.7597271321        0.1750988520        1.8844852672
 C         -2.8950516657       -0.8905912183        1.7113538115
 O         -2.7952787599       -1.6345068062        2.7084865883
 H          0.2697296177       -0.3686728460        1.4256395788
 C          0.7245734484       -0.7758551341        0.5292349105
 C          0.0412722111       -1.7515137033       -0.1876873983
 C          0.6354975392       -2.2681809588       -1.3306093336
 C          1.8738275593       -1.8084650115       -1.7445712914
 C          2.5440001953       -0.8304614177       -1.0339776830
 C          1.9599799113       -0.3076854812        0.1126529329
 N          2.6340612803        0.6967099362        0.8363850970
 S          4.1659206705        0.3137574849        1.4155598742
 O          4.2892011334       -1.1015292052        1.6818792020
 O          4.3791934896        1.1992177649        2.5399802290
 C          5.2589206425        0.7822549003        0.0911626609
 C          5.2443159788        2.0971463478       -0.3312731950
 C          6.0941311035        2.4791750585       -1.3569807111
 C          6.9410302582        1.5462327832       -1.9370372140
 C          6.9459780272        0.2307737870       -1.4988857851
 C          6.0974513019       -0.1584266402       -0.4740456956
 H          6.0614383700       -1.1705513049       -0.1040821687
 H          7.6051852321       -0.4927686102       -1.9508738297
 H          7.6012770640        1.8466756069       -2.7352465305
 H          6.0930906551        3.5011325039       -1.7004243555
 H          4.5739002323        2.7903634585        0.1488580007
 H          2.0777129811        1.0925678688        1.5808950214
 H          3.5037037375       -0.4638924542       -1.3598112204
 H          2.3202457358       -2.2138201645       -2.6397330052
 H          0.1206718250       -3.0160087109       -1.9107123003
 C         -1.2944480881       -2.2075802565        0.3479613907
 H         -1.1305814731       -2.5635040122        1.3795361395
 C         -1.8869269208       -3.3788817282       -0.4218651174
 C         -3.3681681871       -3.6055367981       -0.4621224230
 C         -2.6387255154       -3.1975050597       -1.7048464486
 H         -2.5065370634       -3.9339867596       -2.4839617262
 H         -2.7636874240       -2.1912493080       -2.0709436967
 H         -3.9995681530       -2.8772786240        0.0264964582
 H         -3.7332079559       -4.6187562538       -0.3849727941
 H         -1.2705068347       -4.2687941872       -0.3380724019
 O         -1.7197433633       -0.0768273725       -1.6082946143
