  62
        -98.93508867
 C          2.2828715038       -0.7087239683        0.3209729917
 C          3.5379611914       -0.9987186293       -0.2619436639
 C          4.4487170794        0.1385700683       -0.4937762123
 C          4.0289871365        1.3769032480       -0.1736979446
 C          4.7883086865        2.6722268667       -0.2828838219
 C          5.8380411898        2.8387184217        0.8284998675
 C          6.6662865081        1.5911052002        1.1251491375
 H          7.2843359272        1.8041145157        2.0013518519
 H          5.9966822790        0.7717671198        1.3928267292
 C          7.5935357125        1.1417609930       -0.0014665679
 H          8.2916456227        1.9489893095       -0.2342023256
 H          8.1762876751        0.2972481751        0.3751788369
 C          6.9080144130        0.7050162079       -1.2975678538
 H          7.6599792356        0.1962143611       -1.9078887604
 H          6.5743975980        1.5641721376       -1.8732992500
 C          5.7606054726       -0.2829243933       -1.1112577562
 H          6.1129763462       -1.1335260730       -0.5168324427
 H          5.5023751398       -0.7043840629       -2.0904827899
 H          5.3145479114        3.1156961347        1.7467852911
 H          6.5002360033        3.6622416664        0.5562748971
 H          5.2453739788        2.7543432186       -1.2645665838
 H          4.0533264707        3.4749795090       -0.1907460301
 O          2.7975585545        1.6126270977        0.3633827507
 C          1.8965409756        0.5963701554        0.6224568304
 O          0.8179961628        0.9797546609        1.1159451408
 O          3.8953605066       -2.1668910398       -0.5741049552
 C          1.3158271172       -1.8531451904        0.5721970891
 C          0.1263744115       -1.6749214621       -0.3382598469
 C          0.3001763244       -1.8698094828       -1.7064526612
 C         -0.7444817683       -1.6644689685       -2.5861929045
 C         -1.9855688084       -1.2607263438       -2.1234383378
 C         -2.1670710345       -1.0564983723       -0.7630533480
 C         -1.1155371733       -1.2702504724        0.1213335162
 H         -1.2665717283       -1.0951202765        1.1747641464
 N         -3.4276101595       -0.6672775192       -0.2675969226
 S         -4.2790772355        0.5362567968       -1.0906182061
 O         -4.8138671020       -0.0295955829       -2.3042611943
 O         -3.4635180841        1.7199371409       -1.2532306686
 C         -5.6024029400        0.8367187800        0.0639608421
 C         -5.4835145261        1.8643259087        0.9800712047
 C         -6.5066551269        2.0696716156        1.8925428448
 C         -7.6223791413        1.2461462368        1.8756744837
 C         -7.7266578776        0.2183256728        0.9502094293
 C         -6.7082056769        0.0083920206        0.0343661870
 H         -6.7478666056       -0.7713788273       -0.7079186768
 H         -8.5966657926       -0.4181391049        0.9393060679
 H         -8.4164382286        1.4087532804        2.5872616573
 H         -6.4290623454        2.8694889209        2.6114118435
 H         -4.6012379155        2.4843144432        0.9525720278
 H         -3.3767835799       -0.4330533457        0.7153881442
 H         -2.8049679969       -1.0862803668       -2.8012961739
 H         -0.5951278829       -1.8173382190       -3.6447612129
 H          1.2726326814       -2.1732698680       -2.0697886703
 H          1.8512393595       -2.7602129089        0.2592002161
 C          0.9649690411       -1.9732850849        2.0394853628
 C          0.3548229146       -3.2426826132        2.5519678039
 C          1.7671524962       -2.8923145617        2.9092236533
 H          1.9831436282       -2.5842231555        3.9212532073
 H          2.5669848604       -3.4482190366        2.4425289938
 H         -0.3998808728       -3.1795939588        3.3209581655
 H          0.1936993433       -4.0381911783        1.8404384766
 H          0.6401360431       -1.0363887791        2.4767912884
