  62
        -98.93708420
 C          2.2441705317        1.0019165549       -0.5833330373
 C          2.9954351069       -0.0702397138       -1.1268354872
 C          4.3856668307       -0.1806844475       -0.6523621193
 C          4.8581261652        0.7055706370        0.2413110182
 C          6.2328785496        0.6728332099        0.8421319473
 C          6.2522708507       -0.1391647266        2.1447147318
 C          5.5849378022       -1.5095575176        2.0281176199
 H          5.6871498147       -2.0039752174        2.9965686757
 H          4.5160970351       -1.3709506913        1.8496938958
 C          6.1699745918       -2.4090213501        0.9303174524
 H          7.1561031611       -2.0450151260        0.6396621333
 H          6.3024527060       -3.4143329280        1.3356844621
 C          5.2916195059       -2.5428855810       -0.3149821738
 H          4.2761454060       -2.8165984861       -0.0185422949
 H          5.6869119885       -3.3608826201       -0.9229953465
 C          5.2139568163       -1.3023466205       -1.2139033263
 H          6.2218259028       -0.9554710611       -1.4503501193
 H          4.7240065220       -1.5983986976       -2.1460631365
 H          7.2904607904       -0.2627456791        2.4583905471
 H          5.7298206786        0.4314858600        2.9161106183
 H          6.9274382657        0.2427121525        0.1231266367
 H          6.5372577072        1.6982646505        1.0588400214
 O          4.1071384731        1.7210883131        0.7412258885
 C          2.7917511432        1.8874234978        0.3489926044
 O          2.2165499300        2.8564540530        0.8875337670
 H         -1.3438991158        2.2070847982        0.3731120297
 C         -1.2396693457        1.1344204019        0.4702534047
 C         -0.1682148898        0.4919453422       -0.1328218511
 C         -0.0483709016       -0.8864009160        0.0174511816
 C         -0.9881886144       -1.6007972401        0.7387347754
 C         -2.0735198409       -0.9583581972        1.3104827352
 C         -2.1922696496        0.4172036959        1.1775528531
 N         -3.3500876924        1.0565572377        1.7073305559
 S         -4.5390293911        1.1942943654        0.5140495006
 O         -4.0012461943        1.7983848879       -0.6866595960
 O         -5.6442314562        1.8958569583        1.1271576649
 C         -4.9617169184       -0.5028319488        0.2060546853
 C         -4.3607610242       -1.1616187953       -0.8484781253
 C         -4.6529079980       -2.5007506564       -1.0527434455
 C         -5.5343794570       -3.1521074771       -0.2031589984
 C         -6.1313587676       -2.4745634281        0.8497001530
 C         -5.8416018554       -1.1361369131        1.0615618333
 H         -6.2816093472       -0.5678784109        1.8643954537
 H         -6.8175730824       -2.9852485938        1.5059289633
 H         -5.7578665000       -4.1949788760       -0.3641392073
 H         -4.1882918647       -3.0288576060       -1.8698286012
 H         -3.6819603588       -0.6169970633       -1.4856631244
 H         -3.1525989509        1.9843009373        2.0604664993
 H         -2.8199948713       -1.5061342711        1.8621230050
 H         -0.8821840835       -2.6693841075        0.8445986952
 H          0.7826682970       -1.3905557667       -0.4521743107
 C          0.8017580444        1.2854753813       -0.9669841385
 H          0.6477556892        2.3495423197       -0.7245045733
 C          0.5306653427        1.1311722730       -2.4589120440
 C         -0.2637005772        0.0120187374       -3.0545192229
 C         -0.8458169557        1.3905391811       -2.9991759264
 H         -0.9419619495        1.9511502141       -3.9171218157
 H         -1.6412485112        1.5774966861       -2.2904120180
 H          0.0639906455       -0.3778718676       -4.0059884889
 H         -0.6656808462       -0.7391619192       -2.3936067035
 H          1.3608769447        1.4981414729       -3.0545136049
 O          2.5507088601       -0.8995981523       -1.9590230477
