  62
        -98.94040992
 C          2.0538932305        0.4296734806        0.1131583796
 C          2.7337326508       -0.7503545693        0.5110328296
 C          4.0807140306       -0.9485645692       -0.0371322709
 C          4.5795939002       -0.0366211592       -0.8911460612
 C          5.9546415400       -0.0826196191       -1.4905287717
 C          6.9661818202        0.6747832012       -0.6190546922
 C          6.9110158607        0.2960865114        0.8609536779
 H          7.6872632909        0.8691628115        1.3726462675
 H          5.9512726309        0.6139758913        1.2746930382
 C          7.1115559911       -1.1998217586        1.1412749980
 H          7.8060351614       -1.3096167584        1.9769099178
 H          7.5683440608       -1.6811977386        0.2757912679
 C          5.8341809713       -1.9506535787        1.5223673786
 H          5.3232010515       -1.4187450987        2.3289560987
 H          6.1196328016       -2.9329130086        1.9083898586
 C          4.8302760609       -2.1805471390        0.3854559790
 H          5.3385409207       -2.6344534890       -0.4679128011
 H          4.0730626312       -2.8826615491        0.7468045994
 H          7.9680758800        0.4844364013       -1.0081340125
 H          6.7652709600        1.7450322411       -0.7063643622
 H          6.2612062501       -1.1207933991       -1.6031895317
 H          5.9158860095        0.3842848608       -2.4761904817
 O          3.8924778399        1.0672593306       -1.2721876211
 C          2.6171758100        1.3373873205       -0.7852027407
 O          2.1281129397        2.3899630004       -1.2313087207
 O          2.2327106812       -1.5968727592        1.3003646399
 C          0.6700321106        0.6391595004        0.7007080501
 C         -0.3894284196        0.0293847302       -0.1808067394
 C         -0.4444553401        0.3091110600       -1.5424597694
 C         -1.4335633203       -0.2461777703       -2.3339099090
 C         -2.3900934000       -1.0823025703       -1.7849798685
 C         -2.3477240795       -1.3625613801       -0.4260832885
 C         -1.3500368193       -0.8089371499        0.3658317811
 H         -1.3113493289       -1.0461422697        1.4203854711
 N         -3.3452816792       -2.1825481602        0.1386123720
 S         -4.9220052993       -1.6385907805       -0.0560573275
 O         -5.6824749588       -2.2781192404        0.9930890828
 O         -5.3531358198       -1.8994637807       -1.4053212673
 C         -4.8027937195        0.1179375196        0.2273470422
 C         -4.7117638400        0.9807127895       -0.8460610280
 C         -4.5111796201        2.3304038295       -0.6040620682
 C         -4.4050831297        2.7914881597        0.6985323717
 C         -4.5088672692        1.9132451098        1.7665140818
 C         -4.7029954390        0.5619736598        1.5312269821
 H         -4.7905425487       -0.1518790601        2.3348811622
 H         -4.4301115288        2.2765207800        2.7785839217
 H         -4.2374635598        3.8403978598        0.8832331815
 H         -4.4313389305        3.0161568294       -1.4321017084
 H         -4.8025849303        0.5844125193       -1.8437934179
 H         -3.1748906288       -2.4117294801        1.1076504219
 H         -3.1715140402       -1.5187852805       -2.3858825782
 H         -1.4613551307       -0.0239664104       -3.3899262390
 H          0.2924648796        0.9717267700       -1.9704103498
 H          0.6808816811        0.0669871006        1.6421646702
 C          0.3690007506        2.0894611904        1.0551770200
 C         -0.6617089598        2.9179057002        0.3542445603
 C         -0.9161701092        2.4345892504        1.7480712804
 H         -0.8917682490        3.1457405005        2.5593353203
 H         -1.6399671791        1.6429628203        1.8723494408
 H         -0.4352716700        3.9607423302        0.1953310701
 H         -1.2214437400        2.4669248200       -0.4497430394
 H          1.2577438406        2.6148785106        1.3887835696
