  62
        -98.93596537
 C         -2.3287187016       -0.5951409639        0.0651822269
 C         -3.3994834131       -0.5088374634        0.9863217244
 C         -4.4486389322        0.4714395881        0.6705582825
 C         -4.3236574603        1.2302644533       -0.4337137477
 C         -5.3441531935        2.2126367364       -0.9343013010
 C         -6.5009842242        1.4622304402       -1.6250551553
 C         -7.8486005700        1.5884451663       -0.9141346176
 H         -8.2618138511        2.5800908243       -1.1101119970
 H         -8.5239218497        0.8560071629       -1.3615544899
 C         -7.8250322325        1.3827309516        0.6035471739
 H         -7.4746987793        2.2931250164        1.0921395897
 H         -8.8600249596        1.2381565873        0.9206519102
 C         -6.9864107891        0.2013304936        1.1081146496
 H         -7.5233970522       -0.2672037480        1.9354459450
 H         -6.8798539466       -0.5553417993        0.3304625112
 C         -5.5928224548        0.5854745506        1.6397768429
 H         -5.6250692322        1.5986187389        2.0500612890
 H         -5.3331737909       -0.0920378316        2.4586438476
 H         -6.2268024429        0.4080347925       -1.7030362545
 H         -6.6169595160        1.8319928226       -2.6449537368
 H         -5.7164910835        2.8110536390       -0.1058651235
 H         -4.8412229881        2.8707296220       -1.6430139087
 O         -3.2678370121        1.1331924126       -1.2827777015
 C         -2.2460564967        0.2215104077       -1.0619299342
 O         -1.3481439158        0.2380714711       -1.9245174542
 H          1.1330099574       -1.7927477321       -1.1159015199
 C          1.1904952659       -1.0879279867       -0.3011755625
 C          0.0889516060       -0.8773810838        0.5115593534
 C          0.1990772638        0.0392155499        1.5547579627
 C          1.3754673430        0.7302180027        1.7683997813
 C          2.4699485202        0.5257594706        0.9453684579
 C          2.3736977826       -0.3887161625       -0.0931320002
 N          3.4784826213       -0.5946989284       -0.9361519873
 S          4.9723042124       -0.9078914726       -0.2402881622
 O          5.7100500321       -1.6439615188       -1.2437559016
 O          4.8307568616       -1.5450401926        1.0484351910
 C          5.7085068834        0.7017008729       -0.0472964532
 C          6.1381126511        1.1167335853        1.1979058734
 C          6.7207470227        2.3683418167        1.3231589712
 C          6.8637058375        3.1777178100        0.2066447142
 C          6.4294021197        2.7449586785       -1.0375522017
 C          5.8468731560        1.4946573966       -1.1695660661
 H          5.5001319761        1.1205745342       -2.1184606762
 H          6.5424454499        3.3771642741       -1.9035758819
 H          7.3168066369        4.1514479132        0.3062932819
 H          7.0597252620        2.7063323902        2.2892704030
 H          6.0027416625        0.4549715374        2.0386347520
 H          3.2955284425       -1.2253234207       -1.7030578302
 H          3.3899680870        1.0647259853        1.1024194804
 H          1.4429107129        1.4376428180        2.5810139174
 H         -0.6566876999        0.2009497913        2.1961054795
 C         -1.2212569931       -1.6011364625        0.3247165876
 H         -1.4813716176       -2.0794061882        1.2802959311
 C         -1.1960570002       -2.6602206040       -0.7565656940
 C         -0.5765240903       -3.9967377074       -0.4798239401
 C         -2.0644205784       -3.8718222510       -0.6072806216
 H         -2.5426953293       -4.2749019576       -1.4873611362
 H         -2.6637828343       -3.9464773194        0.2881820963
 H         -0.0338014459       -4.4899954418       -1.2723696462
 H         -0.1619465225       -4.1601711455        0.5035943974
 H         -1.0915712028       -2.2427158911       -1.7518500378
 O         -3.4722895206       -1.2178526349        2.0263612129
