  62
        -98.94082658
 C         -1.7235874484       -0.1480819016       -0.6374368648
 C         -2.9101553295        0.2583053168       -1.3009245577
 C         -4.1758572003       -0.1765906706       -0.6962319187
 C         -4.1446802622       -0.9681079950        0.3907581530
 C         -5.3541554424       -1.4332981839        1.1476472395
 C         -5.7097857611       -0.4555374615        2.2766444563
 C         -5.7663704270        1.0066191920        1.8335771250
 H         -6.0541433480        1.5990703688        2.7048158454
 H         -4.7637780994        1.3299657162        1.5438756962
 C         -6.7420675879        1.2839216357        0.6812261080
 H         -7.4511391383        0.4602989474        0.5907328564
 H         -7.3166115591        2.1818755726        0.9180285444
 C         -6.0730409603        1.5273127481       -0.6728993995
 H         -5.2972252925        2.2898491997       -0.5660767463
 H         -6.8272574990        1.9226905439       -1.3583587243
 C         -5.4495468488        0.2945916398       -1.3396417741
 H         -6.1832865383       -0.5128788719       -1.3795420270
 H         -5.1832790061        0.5693071659       -2.3644887120
 H         -6.6741878077       -0.7481533403        2.6958446540
 H         -4.9562788300       -0.5459856534        3.0627530056
 H         -6.1919687206       -1.5311453311        0.4599569888
 H         -5.1344594999       -2.4106132088        1.5807372855
 O         -2.9894588486       -1.4017197721        0.9544160533
 C         -1.7492344210       -1.0007280947        0.4673371844
 O         -0.7875812858       -1.4800342281        1.0958485100
 H          1.9731894007       -0.0015049187        0.1482262712
 C          1.7686308742       -0.7959938324       -0.5482950868
 C          0.5940636028       -0.7916505104       -1.2837221017
 C          0.3294337504       -1.8660439035       -2.1290250835
 C          1.2114079031       -2.9248176606       -2.2200265840
 C          2.3843653465       -2.9253999529       -1.4862517701
 C          2.6629326713       -1.8534504066       -0.6458106237
 N          3.8722277926       -1.8098864568        0.0514108952
 S          4.2475407937       -0.7263706338        1.2527746673
 O          5.5752524126       -1.1281709797        1.6700051253
 O          3.2564330715       -0.6712924833        2.3009079431
 C          4.3419518031        0.8427666864        0.4140911056
 C          3.8677252561        1.9696939173        1.0554725056
 C          3.9459041033        3.1943340522        0.4115087096
 C          4.4990506629        3.2708919156       -0.8573157057
 C          4.9790175441        2.1315362959       -1.4849921979
 C          4.9036383072        0.9042971924       -0.8456465162
 H          5.2640443927        0.0003595396       -1.3072902028
 H          5.4089238943        2.1954284294       -2.4716096446
 H          4.5549444175        4.2240870077       -1.3589787574
 H          3.5735359827        4.0809434771        0.8997430400
 H          3.4374474360        1.8601801749        2.0388286996
 H          4.4236007757       -2.6526824801        0.0655633695
 H          3.0757808496       -3.7510489521       -1.5564130049
 H          0.9870256330       -3.7580042362       -2.8690939717
 H         -0.5880980676       -1.8662258659       -2.7018375587
 C         -0.4035624125        0.3351746486       -1.2108733270
 H         -0.6498763753        0.6343602349       -2.2437302369
 C          0.1488975464        1.5746689409       -0.5219338112
 C         -0.7689455044        2.5991591442        0.0725262329
 C          0.0906413297        1.7564758964        0.9638111739
 H          0.9321983452        2.2208006666        1.4562358905
 H         -0.3712051594        0.9747537393        1.5473718194
 H         -0.5201393743        3.6426166381       -0.0468714540
 H         -1.8297594371        2.3969240780        0.0452165482
 H          1.0348111100        1.9552938040       -1.0221103393
 O         -2.9090643322        0.9523722532       -2.3520940655
