  62
        -98.93712464
 C         -1.8664076695       -0.3473579686       -0.9087768804
 C         -2.2943913693       -0.0618219994        0.4074195299
 C         -3.7486850393       -0.1290694593        0.6617362800
 C         -4.5705633395       -0.4599663085       -0.3518283802
 C         -6.0730815395       -0.5630985382       -0.3427056101
 C         -6.7630451092        0.8097493020       -0.3561794090
 C         -6.1708469589        1.8332956912        0.6085088016
 H         -6.6806351087        2.7848865414        0.4362157123
 H         -5.1165650789        1.9823290411        0.3691573016
 C         -6.3121727988        1.4885682102        2.0892314714
 H         -7.3701155788        1.3583426902        2.3276607114
 H         -5.9476732986        2.3480221397        2.6575832019
 C         -5.5491104890        0.2496496897        2.5644912304
 H         -6.0738529092       -0.6635683200        2.2966506799
 H         -5.5246259489        0.2826481289        3.6576511705
 C         -4.0985130691        0.1778247097        2.0980410902
 H         -3.5767921591       -0.5813635908        2.6932000396
 H         -3.5968067489        1.1223490695        2.3369890308
 H         -7.8217070092        0.6650088020       -0.1338386790
 H         -6.6833176492        1.2182253626       -1.3666199088
 H         -6.4028861295       -1.1529656387        0.5072901695
 H         -6.3544102597       -1.1019692475       -1.2503080604
 O         -4.1081298696       -0.7270068077       -1.6081815304
 C         -2.7644626397       -0.6813336777       -1.9203903105
 O         -2.4965647598       -0.9590345869       -3.1079924307
 O         -1.5036146291        0.2387376898        1.3395687600
 C         -0.3905673195       -0.3018391286       -1.2537448305
 C          0.4003255504       -1.2574850694       -0.3926737213
 C         -0.1441900298       -2.4940117095       -0.0565508621
 C          0.5611052201       -3.3901009502        0.7224638472
 C          1.8377340902       -3.0853201307        1.1603955473
 C          2.4008306804       -1.8647213806        0.8123774481
 C          1.6805975505       -0.9567767099        0.0477154188
 H          2.1363413806       -0.0144435598       -0.2078274206
 N          3.6951032005       -1.5240975812        1.2349605082
 S          4.7504845305       -0.8115834306        0.1475227586
 O          4.4865752003       -1.2369408296       -1.2070990617
 O          6.0687710805       -1.1170367312        0.6630209482
 C          4.4724060809        0.9391485893        0.3096718298
 C          4.2287857511        1.4693877385        1.5611869002
 C          4.0660839514        2.8398078085        1.6862180412
 C          4.1590468314        3.6538054492        0.5672975418
 C          4.4100965012        3.1064783700       -0.6812885087
 C          4.5684048809        1.7355402801       -0.8140794096
 H          4.7522474007        1.2673065507       -1.7678888000
 H          4.4817745712        3.7400594306       -1.5511877282
 H          4.0338543617        4.7203951792        0.6683547225
 H          3.8674478816        3.2689557778        2.6551348515
 H          4.1615548911        0.8087375079        2.4091998098
 H          4.1583787904       -2.2318954216        1.7865582376
 H          2.3930846901       -3.7865942313        1.7647885468
 H          0.1175889600       -4.3393222703        0.9837456466
 H         -1.1363199099       -2.7422088291       -0.4090031721
 H         -0.3110619297       -0.6471612779       -2.2960188108
 C          0.1113205108        1.1262528412       -1.1749776796
 C          1.1910567508        1.6087136717       -2.0947280193
 C         -0.2215292792        2.0681721721       -2.2915578589
 H         -0.4707706790        3.0900633319       -2.0488882181
 H         -0.7811221493        1.6676062827       -3.1247190791
 H          1.9101710809        2.3177610412       -1.7128623989
 H          1.6010788605        0.9021064421       -2.8011329999
 H          0.0873918009        1.5166846405       -0.1639726093
