  62
        -98.94082021
 C         -2.3167217936       -0.8199333787       -0.1465542070
 C         -3.6061121915       -1.1839769116        0.3099377511
 C         -4.7286617094       -0.4381661119       -0.2737307352
 C         -4.4786809481        0.5098052583       -1.1956089686
 C         -5.5209812355        1.3841629766       -1.8294295204
 C         -5.7145783906        2.6822519014       -1.0329560629
 C         -5.9071836926        2.4628604372        0.4676271855
 H         -4.9839903094        2.0583304902        0.8889943483
 H         -6.0645948476        3.4434081647        0.9220335255
 C         -7.0776063156        1.5375610232        0.8288170143
 H         -7.6396090580        1.9881407269        1.6495481925
 H         -7.7567881257        1.4512928543       -0.0199705567
 C         -6.6621580694        0.1389890397        1.2889209890
 H         -7.5385916499       -0.3511393007        1.7209618860
 H         -5.9111463769        0.2209947442        2.0786740951
 C         -6.1128382923       -0.7875744519        0.1967356613
 H         -6.0393657309       -1.7933823066        0.6204308820
 H         -6.8086927293       -0.8188411992       -0.6439246507
 H         -6.5786067411        3.2109714385       -1.4394340429
 H         -4.8323637195        3.3104705254       -1.1766107634
 H         -6.4600399044        0.8374277600       -1.8880740156
 H         -5.1915563967        1.6335454485       -2.8394346670
 O         -3.2272419868        0.8176519901       -1.6243558312
 C         -2.1142183170        0.1723193236       -1.1052718652
 O         -1.0283544873        0.5659324087       -1.5732592425
 O         -3.8069275167       -2.0843409774        1.1689114381
 C         -1.1065124823       -1.5371120014        0.4228759561
 C         -0.1564597973       -0.5425778424        1.0428575165
 C         -0.6576288030        0.3884713824        1.9497733601
 C          0.1718962955        1.3282084450        2.5285720218
 C          1.5196324109        1.3599182792        2.2161953825
 C          2.0347994891        0.4236958656        1.3279402337
 C          1.1986668094       -0.5246101584        0.7537253035
 H          1.6222478476       -1.2332778969        0.0629796720
 N          3.4120161938        0.4055154360        1.0444387693
 S          3.9655935782       -0.0198837863       -0.4919349772
 O          3.3590591327        0.8156519530       -1.5038612170
 O          3.8272058807       -1.4438648195       -0.6633889147
 C          5.6912434837        0.3937954897       -0.3075935357
 C          6.1622724938        1.5905864765       -0.8130435357
 C          7.4992671109        1.9125740518       -0.6390450814
 C          8.3372730890        1.0381847045        0.0362918538
 C          7.8502571412       -0.1600436001        0.5374448189
 C          6.5149898867       -0.4884445773        0.3657822037
 H          6.0937991480       -1.4109570748        0.7294911735
 H          8.5056629098       -0.8382369395        1.0596292283
 H          9.3771187035        1.2911419118        0.1704360275
 H          7.8809848758        2.8416769651       -1.0306627002
 H          5.4752969611        2.2345984455       -1.3385979022
 H          3.8784081349        1.2443447392        1.3637514324
 H          2.1671405751        2.1014016978        2.6592362020
 H         -0.2338872029        2.0488456456        3.2228276566
 H         -1.7131799529        0.3693202622        2.1859987641
 H         -1.4984224200       -2.1843334490        1.2222786572
 C         -0.4632131300       -2.4094021026       -0.6340934992
 C          0.2900373660       -3.6428768222       -0.2380748306
 C         -1.0408971975       -3.7627374538       -0.9158678513
 H         -1.0725612141       -4.1065017856       -1.9388893024
 H         -1.8907412869       -4.0700334660       -0.3239836207
 H          1.1807025107       -3.8992447779       -0.7922153521
 H          0.3452220513       -3.8758158560        0.8146267037
 H         -0.0944310676       -1.8368804371       -1.4793980703
