  62
        -98.94208699
 C         -0.5969771098       -1.4491041002        0.0523772797
 C         -1.3891120657       -0.8501587396        1.0557598670
 C         -2.4301389077        0.0950784323        0.6080255967
 C         -2.5346525568        0.3661606341       -0.7066138891
 C         -3.5700930758        1.2064918971       -1.4053287287
 C         -4.9264632008        0.4905556462       -1.5160772042
 C         -5.3933926856       -0.2045208139       -0.2398312573
 H         -6.3120328306       -0.7484586829       -0.4752528775
 H         -4.6484967988       -0.9441502466        0.0595075090
 C         -5.6895066036        0.7224631216        0.9370565943
 H         -6.4580432261        1.4408822012        0.6434223492
 H         -6.1025461337        0.1051016057        1.7389554134
 C         -4.4931320544        1.4927595367        1.5009691101
 H         -4.7947390226        1.8971932811        2.4717498603
 H         -4.2478737472        2.3460647347        0.8745134850
 C         -3.2509839917        0.6427087975        1.7507572016
 H         -3.5278344061       -0.2213640880        2.3657331114
 H         -2.5495194062        1.2173058843        2.3687250099
 H         -4.8459730322       -0.2693180905       -2.2971186530
 H         -5.6756272182        1.2191973514       -1.8302774971
 H         -3.6832997422        2.1635688244       -0.9069823281
 H         -3.1937504506        1.3910196814       -2.4132767739
 O         -1.6916568232       -0.1761572104       -1.6308339361
 C         -0.7204615896       -1.0978981160       -1.2911081437
 O         -0.0479939961       -1.5203482810       -2.2504622528
 O         -1.2545983480       -1.1093341518        2.2841284822
 C          0.4220316689       -2.5022929656        0.4411002379
 C          1.8042712446       -2.1267549025       -0.0305913061
 C          2.6940163535       -3.0426933505       -0.5773721312
 C          3.9574349158       -2.6394566657       -0.9731740979
 C          4.3611171509       -1.3259270937       -0.8270254063
 C          3.4791273254       -0.4013565605       -0.2765157216
 C          2.2153983978       -0.8082416581        0.1180859345
 H          1.5361496821       -0.0912913768        0.5560943364
 N          3.8475867088        0.9412087749       -0.1510730614
 S          3.0671190636        2.0131111476        0.8480669075
 O          3.9258723120        3.1791454335        0.8469790786
 O          2.7877931906        1.4461145864        2.1470986559
 C          1.5575802593        2.4208950037       -0.0006500803
 C          1.5972516776        2.6265396541       -1.3649877406
 C          0.4410498669        3.0253952613       -2.0151522173
 C         -0.7250431263        3.2233910174       -1.2929065537
 C         -0.7509093656        3.0053434224        0.0753925967
 C          0.4000570665        2.5976480764        0.7297650824
 H          0.4195141378        2.4048656050        1.7915002906
 H         -1.6583513649        3.1520587250        0.6386026497
 H         -1.6188279083        3.5490137678       -1.8005316206
 H          0.4530846512        3.1836109409       -3.0815318534
 H          2.5222398010        2.4709547651       -1.8950039032
 H          4.8108692731        1.1700657115       -0.3386919472
 H          5.3454913715       -1.0120029194       -1.1382041149
 H          4.6384216783       -3.3598515225       -1.4003538803
 H          2.3984849656       -4.0719420773       -0.6971237226
 H          0.4312939205       -2.5110002449        1.5421776460
 C         -0.0332513094       -3.8611955931       -0.0530545471
 C          0.3024789260       -5.1037804404        0.7147849601
 C         -1.1030007477       -4.5847487412        0.7067040410
 H         -1.8533077543       -5.1283311983        0.1523466544
 H         -1.4795081612       -4.1105269984        1.6015060514
 H          0.5154836332       -6.0084268264        0.1653232704
 H          0.8773807964       -4.9914303573        1.6216750798
 H         -0.0629339865       -3.9182783851       -1.1357297107
