  62
        -98.94059002
 C          2.3358939204        0.2014249901        0.2632208595
 C          3.5131737605        0.5748010113        0.9548914986
 C          4.7148234404       -0.2046621194        0.6382356400
 C          4.6383533302       -1.2193925911       -0.2422308681
 C          5.7693467600       -2.1250665519       -0.6485136365
 C          6.6601945900       -1.5522550341       -1.7594035177
 C          7.5818974801       -0.4100493434       -1.3301745199
 H          8.1485664902       -0.7133087818       -0.4493369194
 H          8.2971746600       -0.2543969750       -2.1402000803
 C          6.8596387103        0.9150290472       -1.0491278024
 H          5.8613421902        0.8874323665       -1.4920930122
 H          7.3998785203        1.7336188362       -1.5300476340
 C          6.7325309505        1.2660787300        0.4332612870
 H          6.1734391806        2.2015300202        0.5166923653
 H          7.7255514906        1.4281139507        0.8582457466
 C          6.0091404505        0.2055888917        1.2735521991
 H          6.6527485004       -0.6613383381        1.4209010206
 H          5.7768979806        0.6405609135        2.2487279083
 H          6.0219632399       -1.2169777256       -2.5801568882
 H          7.2803670798       -2.3701648149       -2.1333668762
 H          5.3116918599       -3.0463949426       -1.0149714147
 H          6.3799167001       -2.3625656704        0.2230484839
 O          3.4806574900       -1.5621256421       -0.8682455673
 C          2.3071625301       -0.8555287816       -0.6462919085
 O          1.3315623200       -1.2651190327       -1.3037100776
 O          3.5545705707        1.5068010029        1.8024165269
 C          1.0558899905        0.9728202008        0.5261404882
 C         -0.0185880496        0.0431032618        1.0328541900
 C          0.2589544005       -0.7639786761        2.1342470915
 C         -0.6950576596       -1.6266525450        2.6362940733
 C         -1.9523335096       -1.6938716860        2.0611200135
 C         -2.2390527697       -0.8947848080        0.9615944520
 C         -1.2750692996       -0.0328409491        0.4554522403
 H         -1.5270926797        0.5735823993       -0.3979213408
 N         -3.4960882098       -0.9574051091        0.3389946223
 S         -4.1478956097        0.4599049898       -0.3052261003
 O         -3.6136704298        0.6698655872       -1.6270810708
 O         -3.9848140495        1.5492689215        0.6311435676
 C         -5.8673092597       -0.0008645903       -0.4210474392
 C         -6.7389946896        0.3705219517        0.5853423002
 C         -8.0675612796       -0.0147583883        0.4977327510
 C         -8.4992264198       -0.7626739303       -0.5873641475
 C         -7.6128968000       -1.1271684623       -1.5902151169
 C         -6.2833513399       -0.7448544623       -1.5091259078
 H         -5.5608227200       -0.9958392638       -2.2682654374
 H         -7.9526106701       -1.7057131939       -2.4340882258
 H         -9.5336626899       -1.0606154803       -0.6539546868
 H         -8.7597580195        0.2702214032        1.2735689006
 H         -6.3604474194        0.9597543232        1.4050333690
 H         -4.1783373498       -1.4726844180        0.8782352834
 H         -2.6998777597       -2.3658448252        2.4545788949
 H         -0.4628205095       -2.2470296135        3.4889984644
 H          1.2388534905       -0.7047211753        2.5887713613
 H          1.3009724306        1.6799342223        1.3333787468
 C          0.6462848204        1.7613159085       -0.6993956733
 C         -0.2106547994        2.9822466089       -0.5550866455
 C          1.2337688305        3.1200409480       -0.9293545159
 H          1.4798735905        3.4112614661       -1.9394679065
 H          1.9206033907        3.4957850493       -0.1850046367
 H         -0.9645379895        3.1721842775       -1.3048813958
 H         -0.5110036693        3.2657675208        0.4426315640
 H          0.4882831103        1.1308072669       -1.5681605721
