  62
        -98.94454038
 C         -2.6167943836       -1.2171856829        0.1456924264
 C         -2.6414681338       -0.2768758633       -0.9126130660
 C         -3.4230347906        0.9453966155       -0.6701770185
 C         -4.0614695314        1.1072565787        0.5021470816
 C         -4.8345335140        2.3297585811        0.9009947851
 C         -3.9393649089        3.3372638833        1.6360192889
 C         -2.6210920192        3.6344888781        0.9204424784
 H         -2.0909281763        4.3839139765        1.5124133465
 H         -1.9988899407        2.7356480272        0.9190790361
 C         -2.7793223890        4.1419153101       -0.5196475270
 H         -2.1029504134        4.9863795447       -0.6681519792
 H         -3.7952773441        4.5071945604       -0.6749318294
 C         -2.4416051062        3.1095029852       -1.5969883044
 H         -2.3695509000        3.6304892082       -2.5557793032
 H         -1.4595127366        2.6742017777       -1.3891663894
 C         -3.4548160851        1.9702885787       -1.7689756962
 H         -4.4582743795        2.3855368516       -1.8808834544
 H         -3.1993501045        1.4349663564       -2.6881299549
 H         -3.7065904861        2.9371658314        2.6254503037
 H         -4.4994249979        4.2648969375        1.7669108709
 H         -5.2628767700        2.7891212834        0.0124221910
 H         -5.6425717921        2.0228567237        1.5670944213
 O         -4.0326522123        0.1764916075        1.4885031485
 C         -3.3030161563       -0.9893659097        1.3438249383
 O         -3.3490331896       -1.7445382451        2.3350120918
 H         -0.0553433495       -1.2139844759       -1.5032819448
 C          0.3955555523       -1.5148909551       -0.5693619624
 C         -0.3650634868       -2.2077722407        0.3619325637
 C          0.2219984718       -2.5524548966        1.5740393448
 C          1.5352404582       -2.2092324564        1.8440142418
 C          2.2854858303       -1.5076879617        0.9169785564
 C          1.7040026032       -1.1506266970       -0.2921441544
 N          2.4498581839       -0.4038217257       -1.2284607486
 S          2.9860163142        1.0971901546       -0.6862412504
 O          2.1243235126        1.6247917078        0.3476926329
 O          3.1381430019        1.9081440690       -1.8747983436
 C          4.5982330001        0.7428515408       -0.0185923918
 C          5.5310311766        0.1576292303       -0.8525424899
 C          6.7916901677       -0.1251300500       -0.3518352013
 C          7.0971631212        0.1825556935        0.9658103686
 C          6.1506266575        0.7728461259        1.7891742567
 C          4.8870411011        1.0575379155        1.2946123099
 H          4.1162548985        1.5094729782        1.8984648971
 H          6.3897864131        1.0113448285        2.8131193908
 H          8.0788472155       -0.0390593226        1.3536626676
 H          7.5305682435       -0.5841018754       -0.9887162568
 H          5.2525703087       -0.0615904326       -1.8697295982
 H          1.9602800770       -0.2872173818       -2.1056147989
 H          3.3047751197       -1.2257618153        1.1257754756
 H          1.9771031157       -2.4841117482        2.7896634673
 H         -0.3686283632       -3.0724562564        2.3145441174
 C         -1.8191416322       -2.5137304066        0.0925624726
 H         -2.1931176601       -3.1249009138        0.9244294295
 C         -2.0150256191       -3.2877049021       -1.1954684378
 C         -1.6760740403       -4.7467494859       -1.2211276911
 C         -3.1082082792       -4.3086272605       -1.2742870873
 H         -3.6481409379       -4.4131232511       -2.2033749889
 H         -3.7202183134       -4.4543118523       -0.3958856838
 H         -1.2301234511       -5.1557426801       -2.1146208207
 H         -1.3167945774       -5.1919478012       -0.3056946608
 H         -1.8170331228       -2.7074108354       -2.0865115788
 O         -2.0512664848       -0.4244118991       -2.0175240877
