  62
        -98.93920550
 C         -2.6829300780       -1.2346741569       -0.3009675681
 C         -2.5729088598       -0.0113643836       -1.0053702987
 C         -3.7854187414        0.8199818820       -1.0348362552
 C         -4.9025009887        0.3825741333       -0.4262286178
 C         -6.1847366238        1.1559547169       -0.3273199461
 C         -6.2218787696        2.0043474730        0.9516851369
 C         -4.9611505373        2.8393511369        1.1771077792
 H         -5.1137282075        3.4175660555        2.0910908803
 H         -4.1165398123        2.1703233039        1.3590713952
 C         -4.6140372422        3.7900742023        0.0228937541
 H         -5.4890979788        3.9377045064       -0.6110910308
 H         -4.3477062019        4.7634847858        0.4400838182
 C         -3.4342628457        3.3374527380       -0.8394566531
 H         -3.1387302805        4.1748159623       -1.4771867218
 H         -2.5817546576        3.0973957775       -0.1985506483
 C         -3.7008662089        2.1361124826       -1.7551290519
 H         -2.8534507830        2.0475139785       -2.4410833931
 H         -4.6032821249        2.3138357945       -2.3433437596
 H         -7.0920956724        2.6615654987        0.9049301024
 H         -6.3463016999        1.3359836919        1.8068829274
 H         -7.0139361731        0.4468592103       -0.3064577969
 H         -6.2868638256        1.7943536814       -1.2025906302
 O         -4.9750519694       -0.8084712193        0.2218230095
 C         -3.8676069166       -1.6332282060        0.3197577546
 O         -4.0614674446       -2.6795783427        0.9714795733
 O         -1.5232657496        0.3720690645       -1.5842052513
 C         -1.4795740738       -2.1526903160       -0.1595411958
 C         -0.4277369517       -1.4291025190        0.6463698551
 C         -0.6800415737       -1.1844691389        1.9940169771
 C          0.2304637682       -0.4921463895        2.7684269665
 C          1.4072305977       -0.0167981280        2.2150061579
 C          1.6684849407       -0.2545345309        0.8728827099
 C          0.7589863621       -0.9690646288        0.1006336158
 H          0.9718330068       -1.1416407875       -0.9426994471
 N          2.8444188584        0.2545242012        0.2841942062
 S          4.3207847470       -0.0889985249        1.0267700137
 O          4.5270329759       -1.5202165528        1.0970241363
 O          4.3853098892        0.6168330890        2.2810161898
 C          5.4508510350        0.6448162929       -0.1383480172
 C          5.5687853355        2.0215508971       -0.1556673359
 C          6.4289149821        2.6081094267       -1.0698619864
 C          7.1526158287        1.8128321813       -1.9463066775
 C          7.0239493954        0.4326028782       -1.9162084413
 C          6.1638115426       -0.1605830845       -1.0051482270
 H          6.0376685402       -1.2295229936       -0.9413546420
 H          7.5894703940       -0.1826999693       -2.5973721819
 H          7.8226408444        2.2719315309       -2.6560165952
 H          6.5327979438        3.6808629753       -1.0958612081
 H          4.9930142691        2.5986688633        0.5487212495
 H          2.8976271089        0.0093083342       -0.6960759822
 H          2.1246187101        0.5248592125        2.8091858201
 H          0.0222329853       -0.3132959570        3.8129310032
 H         -1.6061809649       -1.5438395692        2.4230075378
 H         -1.8235631975       -3.0141319446        0.4295397213
 C         -1.0033856787       -2.6452167797       -1.5091053874
 C         -0.1300617647       -3.8602590128       -1.5876545504
 C         -1.5539657442       -3.9289177598       -2.0499276502
 H         -1.7499813587       -3.9994143361       -3.1093033254
 H         -2.2669938047       -4.4622591681       -1.4381853514
 H          0.6522881170       -3.8885581878       -2.3309283809
 H          0.1276302376       -4.3496616292       -0.6603265305
 H         -0.8301717245       -1.8437234411       -2.2169342442
