  62
        -98.93105961
 C          2.0928341123        1.1039386304        0.6540037077
 C          2.2629801376        0.3656896790       -0.5400865698
 C          2.6911611969       -1.0406124978       -0.3937986274
 C          2.8652266019       -1.5499433641        0.8378973020
 C          3.2734747766       -2.9452097573        1.2393477648
 C          4.4145769591       -3.5924478661        0.4395358901
 C          3.9502568091       -4.7315919938       -0.4696076220
 H          3.1896174219       -5.3090595123        0.0598524929
 H          4.7960859742       -5.3974773321       -0.6544584471
 C          3.3997897775       -4.2966219149       -1.8265306345
 H          2.9778417963       -5.1804737982       -2.3104340398
 H          4.2215211671       -3.9434614275       -2.4531928744
 C          2.3281153842       -3.2054172118       -1.7797391566
 H          1.6341171304       -3.3802167297       -0.9576838647
 H          1.7473217078       -3.2674021286       -2.7025570421
 C          2.9020932847       -1.7837593423       -1.6848902881
 H          2.4358551965       -1.1489275738       -2.4449061350
 H          3.9714603667       -1.7964323680       -1.9151064192
 H          5.1287918069       -4.0030698624        1.1551083847
 H          4.9379889369       -2.8332953898       -0.1393393069
 H          3.5566106018       -2.8640661110        2.2915205033
 H          2.3858912464       -3.5826244501        1.2064201443
 O          2.6458124141       -0.8122279373        1.9656320306
 C          2.2396197088        0.5068809481        1.9060575494
 O          2.0479339520        1.0352287986        3.0213927391
 H         -0.5271108434        0.9802001051        0.6046008541
 C         -0.6072028847        1.7528768941       -0.1480333045
 C          0.4269295595        2.6701940751       -0.2957367477
 C          0.3068765612        3.6552620151       -1.2660740782
 C         -0.8216398055        3.7115186510       -2.0665679861
 C         -1.8454628433        2.7957334496       -1.9187454131
 C         -1.7287527117        1.7961227099       -0.9569904580
 N         -2.7269524194        0.8167476852       -0.8258236530
 S         -2.8764988706       -0.0691719087        0.5947638505
 O         -2.9586270769        0.8149502749        1.7374767610
 O         -1.8427716306       -1.0746312777        0.6336857557
 C         -4.4585658657       -0.8404213340        0.3084844983
 C         -5.5964912557       -0.2754574587        0.8528328728
 C         -6.8252581954       -0.8647146830        0.5993169966
 C         -6.8954610134       -2.0010150266       -0.1924791535
 C         -5.7447171999       -2.5576411914       -0.7309446778
 C         -4.5129800076       -1.9740132604       -0.4803636795
 H         -3.5910129508       -2.3745619110       -0.8688770770
 H         -5.8023599914       -3.4428263015       -1.3435637779
 H         -7.8525488241       -2.4577637548       -0.3887279222
 H         -7.7207244860       -0.4363646240        1.0197403496
 H         -5.4913014454        0.6025836415        1.4695757552
 H         -3.6205960746        1.0952452405       -1.2056377624
 H         -2.7204414854        2.8386419243       -2.5488765967
 H         -0.9029557013        4.4815624109       -2.8187568740
 H          1.1017803409        4.3682819285       -1.4097818510
 C          1.6059969232        2.5422866014        0.6394687480
 H          1.2297812955        2.7189859303        1.6623815020
 C          2.6957712576        3.5759953678        0.3950191673
 C          4.1364177998        3.2614782123        0.6651973380
 C          3.6646385830        3.4618194986       -0.7419879183
 H          3.9599478441        4.3653249055       -1.2552016200
 H          3.5742787658        2.6003225827       -1.3837495537
 H          4.3769553976        2.2585778679        0.9880951067
 H          4.7495411109        4.0251882421        1.1199761026
 H          2.3702745162        4.5772884598        0.6603378993
 O          2.0700929262        0.8446991556       -1.6880552741
