  62
        -98.94398273
 C         -1.6865134406       -1.3189939987        0.3171917938
 C         -1.3642635918       -0.2624802602       -0.5629895875
 C         -1.9513978604        1.0525871908       -0.2605355412
 C         -2.7236103087        1.1944851916        0.8324853065
 C         -3.3883437314        2.4182979903        1.4276060906
 C         -3.5698522221        3.6899452404        0.6025290872
 C         -4.5260783613        3.5561300760       -0.5815093189
 H         -5.5378951847        3.4059720840       -0.1968316118
 H         -4.5158944548        4.4983577011       -1.1338381441
 C         -4.2212685937        2.4117971345       -1.5446700826
 H         -4.9609164433        2.4465890008       -2.3490309259
 H         -4.3488422130        1.4568130470       -1.0308620408
 C         -2.8346497089        2.4495575657       -2.1846401933
 H         -2.6710512665        3.4235304227       -2.6493859676
 H         -2.8187228379        1.6940178694       -2.9742455005
 C         -1.6561660040        2.1522899642       -1.2389448984
 H         -0.8145571919        1.8051549547       -1.8452714349
 H         -1.3256110143        3.0460805878       -0.7138399051
 H         -3.9846474688        4.4413985101        1.2801814871
 H         -2.6047340499        4.0630795306        0.2723831200
 H         -4.3661857082        2.0810425367        1.7866338424
 H         -2.7996359554        2.6657874643        2.3186717142
 O         -2.9921932886        0.1468870188        1.6670132045
 C         -2.4807296352       -1.1182684257        1.4421510932
 O         -2.8026281300       -1.9663938752        2.3010710367
 O         -0.6052417949       -0.4069387646       -1.5582707036
 C         -1.0920952494       -2.6968781304        0.0911611168
 C          0.4130599364       -2.5968852264        0.0213839415
 C          1.1862983533       -3.3165075370       -0.8813472448
 C          2.5618538186       -3.1622584167       -0.9067438407
 C          3.1914993827       -2.2748264544       -0.0531319579
 C          2.4272258351       -1.5591866683        0.8609555379
 C          1.0562320999       -1.7469561960        0.9121548802
 H          0.4779948048       -1.1845729145        1.6312370740
 N          3.0118153032       -0.6241620064        1.7419104533
 S          2.5571502805        0.9794253559        1.5536209216
 O          3.3523503864        1.7081892872        2.5194269183
 O          1.1281757906        1.1084329479        1.6768160637
 C          3.1046342480        1.3977962922       -0.0924631304
 C          4.3117702480        2.0554315195       -0.2369630261
 C          4.7839522599        2.3225197953       -1.5114436372
 C          4.0491339448        1.9189048606       -2.6163474334
 C          2.8428342363        1.2559744851       -2.4535268042
 C          2.3607272021        0.9883975657       -1.1808328948
 H          1.4217327888        0.4766521825       -1.0352360633
 H          2.2652850886        0.9375082926       -3.3066065987
 H          4.4170396832        2.1220828058       -3.6097211840
 H          5.7212498995        2.8398452837       -1.6387000795
 H          4.8458626867        2.3510502729        0.6517057908
 H          4.0214570314       -0.6744512637        1.7740115008
 H          4.2611914939       -2.1337936983       -0.0913472266
 H          3.1491589579       -3.7268946523       -1.6145387094
 H          0.7099818731       -3.9941254395       -1.5709225897
 H         -1.3585767047       -3.2933559374        0.9765317941
 C         -1.7074205619       -3.3390323493       -1.1358364318
 C         -1.8749681258       -4.8262769853       -1.2117845874
 C         -3.0726179508       -3.9457669447       -1.0235803414
 H         -3.7613141584       -3.8239845583       -1.8460813555
 H         -3.5450387893       -3.9201552192       -0.0519997659
 H         -1.7453536793       -5.3120454381       -2.1671766579
 H         -1.5416807227       -5.4116946457       -0.3681755221
 H         -1.4724046874       -2.8006386271       -2.0468187068
