  62
        -98.94619959
 C          1.8005984781        1.0884923155       -0.2695698080
 C          3.1545332082        1.3003072380        0.0848917752
 C          4.1036880711        0.2727640931       -0.3633006124
 C          3.6511648994       -0.7731637840       -1.0791349844
 C          4.4989481425       -1.9165232941       -1.5548892395
 C          4.5192313443       -3.0584670850       -0.5290230602
 C          4.8242514085       -2.6016235247        0.8975138490
 H          4.8427955932       -3.4932920281        1.5278205840
 H          4.0046001780       -1.9733813422        1.2535293823
 C          6.1484318553       -1.8403650614        1.0505117722
 H          6.7876392449       -2.0310710186        0.1877053869
 H          6.6712451241       -2.2200418689        1.9309197594
 C          5.9939078191       -0.3303816104        1.2419235039
 H          6.9604447340        0.0733061059        1.5550445798
 H          5.2819378099       -0.1339051284        2.0475734654
 C          5.5494369697        0.4579582951        0.0032495212
 H          6.1961169686        0.2116599518       -0.8413673827
 H          5.6676545626        1.5222799646        0.2269882176
 H          5.2628729117       -3.7923633868       -0.8448445209
 H          3.5404491447       -3.5433627301       -0.5312131625
 H          5.5107999690       -1.5600367226       -1.7375497828
 H          4.0802387442       -2.2883604134       -2.4915534506
 O          2.3455644107       -0.9338003482       -1.4140694019
 C          1.3862787001       -0.0160001639       -1.0124160068
 O          0.2279130232       -0.2941417999       -1.3743131194
 O          3.5478046286        2.2966063939        0.7492086689
 C          0.7594385960        2.1041999908        0.1650513169
 C         -0.3002313109        1.4314110240        1.0011951756
 C          0.0950219027        0.7095994694        2.1259047433
 C         -0.8353253832        0.0733022236        2.9232677850
 C         -2.1829571574        0.1357894150        2.6114909819
 C         -2.5888987174        0.8567704618        1.4964495153
 C         -1.6514534910        1.5080553470        0.7043816249
 H         -1.9995359133        2.0531346153       -0.1563197347
 N         -3.9537753632        0.9598773614        1.1634775160
 S         -4.4702363158        0.4265292859       -0.3387641652
 O         -3.8177857522        1.1775733486       -1.3781997730
 O         -5.9129108923        0.5280490380       -0.2859296876
 C         -4.0001089631       -1.2936623973       -0.3831276818
 C         -2.6940350166       -1.6374227290       -0.6681872801
 C         -2.3363144428       -2.9767126598       -0.6217445346
 C         -3.2771112411       -3.9399003586       -0.2931758800
 C         -4.5850267581       -3.5756160922       -0.0093330827
 C         -4.9502159672       -2.2403529154       -0.0489400541
 H         -5.9551171547       -1.9105565227        0.1604311353
 H         -5.3167744328       -4.3258103942        0.2439874890
 H         -2.9888185818       -4.9788813251       -0.2598179959
 H         -1.3162413630       -3.2479706789       -0.8439012842
 H         -1.9697278235       -0.8803181765       -0.9252188004
 H         -4.5707578715        0.5874359161        1.8724630508
 H         -2.9133386186       -0.3652415029        3.2287101037
 H         -0.5112717136       -0.4812712370        3.7908932499
 H          1.1487135721        0.6565798467        2.3645460967
 H          1.2983973145        2.8191887434        0.8045946027
 C          0.2092263333        2.8479932930       -1.0331321318
 C         -0.3362589385        4.2341349837       -0.8701116003
 C          0.9695239081        4.0201858062       -1.5734773617
 H          1.0100710352        4.1598706033       -2.6433803062
 H          1.8788764991        4.2997057511       -1.0615318004
 H         -1.1972407794        4.5187639003       -1.4563105208
 H         -0.3148383436        4.6662019587        0.1190174084
 H         -0.2741544477        2.1938214978       -1.7510483580
