  62
        -98.94185623
 C         -2.7785358848       -0.3268985053       -0.2509173121
 C         -2.0593213337        0.5128536385       -1.1360456236
 C         -2.0932324424        1.9510046094       -0.8321853402
 C         -2.8053234407        2.3939537636        0.2182636368
 C         -2.8901199702        3.8248890823        0.6618495444
 C         -1.8192996276        4.1531320190        1.7110964679
 C         -0.4069732232        3.7132599704        1.3233645254
 H          0.2655219471        4.0486583413        2.1165253977
 H         -0.3522437219        2.6213728669        1.3086985507
 C          0.0851191620        4.2564124739       -0.0251058617
 H          1.1149352987        4.5988330046        0.0956556674
 H         -0.5135896240        5.1192228528       -0.3209759723
 C          0.0878195681        3.2223705653       -1.1527723907
 H          0.5693549401        2.3076961168       -0.7950081261
 H          0.6874273436        3.6176906391       -1.9775949825
 C         -1.2906050751        2.8584910808       -1.7209972498
 H         -1.8476268621        3.7692376684       -1.9505147085
 H         -1.1349270888        2.3061916248       -2.6522468786
 H         -1.8291197505        5.2309006223        1.8854124462
 H         -2.0856657963        3.6550087287        2.6463004500
 H         -2.7762682878        4.4744917762       -0.2038110380
 H         -3.8759044025        3.9886343690        1.1009692767
 O         -3.5150307051        1.5652122982        1.0259426308
 C         -3.4912443638        0.1961381937        0.8332602185
 O         -4.1512046006       -0.4472593959        1.6745689471
 O         -1.4120721697        0.1099417475       -2.1409963679
 C         -2.7786929117       -1.8477834098       -0.3474070253
 C         -1.5049815369       -2.3644846889        0.2783154095
 C         -1.5224752179       -3.1207760706        1.4440632469
 C         -0.3403873255       -3.4956970135        2.0604370770
 C          0.8818475472       -3.1068099199        1.5403923469
 C          0.9055241655       -2.3553826056        0.3743251695
 C         -0.2759128833       -2.0118994929       -0.2604911416
 H         -0.2429123890       -1.4131561014       -1.1585982355
 N          2.1479450118       -1.8764281920       -0.1270178320
 S          2.6354749726       -0.5242597401        0.7772571700
 O          2.9351644029       -0.9737135601        2.1135769101
 O          1.6547598417        0.5338396885        0.6677444146
 C          4.1409813449       -0.0675479379       -0.0601111888
 C          4.1393518430        1.0023002588       -0.9335699619
 C          5.3115001254        1.3235647966       -1.6005302692
 C          6.4557521634        0.5702702367       -1.3867009051
 C          6.4402252104       -0.5029754015       -0.5079057618
 C          5.2726535741       -0.8282017902        0.1633091014
 H          5.2133246998       -1.6470556517        0.8606765427
 H          7.3324720090       -1.0854274500       -0.3443185458
 H          7.3658339459        0.8226163365       -1.9076272158
 H          5.3259412668        2.1581594934       -2.2829335043
 H          3.2271408679        1.5627124464       -1.0658587194
 H          2.0324532540       -1.5593351882       -1.0834929879
 H          1.8075886439       -3.3488038248        2.0360123085
 H         -0.3721533878       -4.0794153741        2.9680921919
 H         -2.4723962827       -3.3885659943        1.8841287947
 H         -3.6204261483       -2.1870687511        0.2708596436
 C         -2.9735556830       -2.3739221006       -1.7548178893
 C         -3.4720176694       -3.7745023210       -1.9399553190
 C         -4.3631789126       -2.6128895397       -2.2599107703
 H         -4.5784689061       -2.3940386335       -3.2948718733
 H         -5.1821566835       -2.3972701654       -1.5889410620
 H         -3.0747868229       -4.3580701775       -2.7560570291
 H         -3.6890112510       -4.3492358739       -1.0522506000
 H         -2.2471306155       -1.9980256525       -2.4624175442
