  62
        -98.94368794
 C         -1.9608916998       -1.3093990508       -0.2477288078
 C         -1.8106097399        0.0215109396        0.2109624109
 C         -3.0090419999        0.6268861901        0.8051394103
 C         -4.1428839298       -0.0901718299        0.9052198111
 C         -5.4378317399        0.3828781106        1.5081609006
 C         -6.3170045500        1.1928559196        0.5452855399
 C         -5.8158895401        2.6039945993        0.2344144385
 H         -6.6313178501        3.1290788988       -0.2671434719
 H         -5.6158245101        3.1312186102        1.1677971680
 C         -4.5721165101        2.6507095486       -0.6640458515
 H         -4.4465545100        1.6860153181       -1.1610045006
 H         -4.7176679902        3.3977557978       -1.4475225223
 C         -3.2755723101        3.0041424994        0.0647736881
 H         -3.3373547902        4.0244778297        0.4495670471
 H         -2.4565924001        2.9640576288       -0.6576520919
 C         -2.9318814800        2.0632764205        1.2266993090
 H         -1.9041758600        2.2619299409        1.5411865487
 H         -3.5955438900        2.2496883713        2.0707288488
 H         -6.4252611799        0.6308834187       -0.3853573996
 H         -7.3068551199        1.2744490599        1.0003381699
 H         -5.9879546898       -0.5126881992        1.8052700715
 H         -5.2320244299        0.9748751015        2.4006116001
 O         -4.2373612197       -1.3770616103        0.4746880323
 C         -3.1586220197       -2.0115319308       -0.1221856071
 O         -3.3856896296       -3.1844617311       -0.4836208960
 H          1.8545500102       -1.4009475416       -1.4310746279
 C          1.6815410603       -1.6562759207       -0.3970279776
 C          0.4068175803       -1.9942323203        0.0303870727
 C          0.2241436104       -2.3283934391        1.3698861831
 C          1.2808467504       -2.2999915881        2.2592037630
 C          2.5498064303       -1.9486771784        1.8319419626
 C          2.7464630603       -1.6257196397        0.4968509723
 N          4.0422205402       -1.2819126000        0.0573785320
 S          4.7510865001        0.1167798906        0.6447276206
 O          6.0992424001        0.1178558602        0.1234436406
 O          4.6190986802        0.1430142220        2.0785912506
 C          3.8351152200        1.4611272898       -0.0904887507
 C          2.5103261700        1.6361511100        0.2563596792
 C          1.7857725399        2.6461806094       -0.3562960817
 C          2.3968831298        3.4669764686       -1.2913594625
 C          3.7312461298        3.2838090883       -1.6231096824
 C          4.4570878399        2.2667351590       -1.0248035315
 H          5.4928593499        2.0808014788       -1.2591350213
 H          4.2042939997        3.9251495077       -2.3495346230
 H          1.8282932797        4.2521391781       -1.7649460133
 H          0.7421359999        2.7554788495       -0.1091950318
 H          2.0451789301        0.9870168207        0.9804438498
 H          4.1437488402       -1.3044610310       -0.9480516480
 H          3.3808497904       -1.9018487177        2.5160670126
 H          1.1175988604       -2.5550531472        3.2956945333
 H         -0.7665179496       -2.6018706288        1.7083137034
 C         -0.7845077897       -2.0159152813       -0.8963136872
 H         -1.0932372097       -3.0624747415       -1.0342685762
 C         -0.5054084998       -1.4056858226       -2.2549411778
 C          0.0856577502       -2.2365682536       -3.3533490670
 C         -1.3521606298       -1.8193797838       -3.4193586174
 H         -1.6406592699       -1.0697082645       -4.1407778181
 H         -2.1127388798       -2.5649901937       -3.2375853266
 H          0.7824682102       -1.7726829742       -4.0355219875
 H          0.3019991903       -3.2720388834       -3.1374423360
 H         -0.2199925799       -0.3615311025       -2.1902987688
 O         -0.7365082999        0.6690131397        0.1334461302
