  62
        -98.93959198
 C         -2.2835834985       -0.8776465601        0.6410913891
 C         -3.4317368985       -0.9212224899       -0.1880369008
 C         -4.4740919387        0.0710588397        0.1096464997
 C         -4.3034470888        0.9523563193        1.1103350501
 C         -5.2831814590        2.0106921989        1.5397151506
 C         -5.2134323493        3.3017451893        0.7124896612
 C         -5.7759508793        3.1980152899       -0.7057741488
 H         -6.7796023892        2.7736339197       -0.6668202790
 H         -5.8670859295        4.2163146700       -1.0889081383
 C         -4.9069870392        2.3826303805       -1.6735581492
 H         -3.9016167591        2.2750364705       -1.2590581393
 H         -4.8066794393        2.9237911410       -2.6170979190
 C         -5.4573853489        0.9951197405       -2.0026698499
 H         -4.7458194688        0.4920128910       -2.6619380901
 H         -6.4034523190        1.0939190106       -2.5394274398
 C         -5.6825458287        0.0998490399       -0.7776106703
 H         -6.5549553187        0.4378294195       -0.2191663201
 H         -5.8618755085       -0.9197543099       -1.1267890508
 H         -5.7816863894        4.0636569990        1.2511032116
 H         -4.1728892793        3.6322596795        0.6691111113
 H         -6.2958686589        1.6079605087        1.5032298304
 H         -5.0421661090        2.2530653785        2.5769909207
 O         -3.1864065088        0.9638240492        1.8867024000
 C         -2.1589033086        0.0628174095        1.6688592096
 O         -1.1997374686        0.1885985393        2.4590088996
 O         -3.6077136584       -1.7373323195       -1.1303720912
 C         -1.1070933083       -1.8293259598        0.4900811287
 C         -0.1766656184       -1.3869799791       -0.6146737612
 C         -0.5941220985       -1.3320073785       -1.9404715611
 C          0.2812792514       -0.9264165279       -2.9307735210
 C          1.5829024414       -0.5732786078       -2.6221885909
 C          2.0133293114       -0.6342524283       -1.3015165409
 C          1.1311477515       -1.0379320190       -0.3089602111
 H          1.4683856016       -1.0602128394        0.7166347689
 N          3.3477874114       -0.3322541382       -0.9776023308
 S          3.7109115713        0.3901872411        0.5033803595
 O          3.6279766315       -0.6070002894        1.5405371491
 O          2.9177324511        1.5858869809        0.6850809101
 C          5.4206037812        0.8133914216        0.2235279497
 C          6.3605996714       -0.1994730282        0.2640422892
 C          7.6894709013        0.1096388421        0.0224854493
 C          8.0550723311        1.4190967923       -0.2532321501
 C          7.1014186709        2.4251012322       -0.2873542096
 C          5.7697455109        2.1222427518       -0.0485735597
 H          4.9945075908        2.8716215816       -0.0578940294
 H          7.3889151707        3.4425447723       -0.4981933592
 H          9.0902801010        1.6574055126       -0.4397164501
 H          8.4340456315       -0.6694411277        0.0509667989
 H          6.0307725316       -1.1994725084        0.4921265787
 H          3.8317384113        0.1347413222       -1.7330882906
 H          2.2637420413       -0.2564343673       -3.3977650107
 H         -0.0549686986       -0.8808966975       -3.9557091409
 H         -1.6118120284       -1.5969072386       -2.1818067212
 H         -0.5493854883       -1.7600137501        1.4347235687
 C         -1.5254172480       -3.2736663198        0.2886076380
 C         -0.5430574178       -4.3584087197        0.6070599374
 C         -1.7393843978       -4.1478895904        1.4852547976
 H         -2.5374945577       -4.8743284005        1.4560123373
 H         -1.5853829179       -3.7069529608        2.4599456678
 H         -0.5173042177       -5.2320841994       -0.0257235530
 H          0.4232080522       -4.0601087897        0.9867666975
 H         -2.1830743380       -3.4178940695       -0.5578747721
