  62
        -98.94162644
 C          2.1158621855        0.8389209980        0.2832682786
 C          2.9694558223        0.2093065946        1.2244489082
 C          3.7369353952       -0.9445441118        0.7379298136
 C          3.5407747955       -1.3783470620       -0.5201843851
 C          4.2913726340       -2.5062510591       -1.1654762417
 C          5.5453856769       -1.9950395712       -1.8888525926
 C          6.4133147104       -1.0660334492       -1.0397714514
 H          7.2825812809       -0.7934184382       -1.6419456760
 H          5.8600729259       -0.1453691650       -0.8402334988
 C          6.8820957670       -1.6737621741        0.2897201277
 H          6.7816359183       -2.7591982312        0.2563738941
 H          7.9426785057       -1.4501283038        0.4221126757
 C          6.1563904086       -1.1358023232        1.5243715798
 H          6.7048812507       -1.4641750837        2.4111104472
 H          6.1763819688       -0.0430210645        1.5139377789
 C          4.7009638877       -1.5897916006        1.6934199074
 H          4.3736355278       -1.2933477715        2.6944208291
 H          4.6437960894       -2.6779769076        1.6219616268
 H          6.1347426396       -2.8567436104       -2.2073498006
 H          5.2308687490       -1.4495845727       -2.7816984189
 H          3.6325222264       -2.9862278004       -1.8913217713
 H          4.5684420154       -3.2339220385       -0.4049294788
 O          2.6544460039       -0.8008996551       -1.3694917275
 C          1.9239745886        0.3233257151       -1.0000782538
 O          1.1606022639        0.7398631263       -1.8899216889
 O          3.0792208278        0.5924653176        2.4203292391
 C          1.3286295500        2.0507852003        0.7505079701
 C         -0.1261775621        1.8916599347        0.3867649286
 C         -0.8247132955        2.7771359920       -0.4220245648
 C         -2.1544558737        2.5441602886       -0.7279158678
 C         -2.8153201022        1.4351081631       -0.2336137365
 C         -2.1247039316        0.5400850944        0.5732776683
 C         -0.7953520089        0.7786647502        0.8822065030
 H         -0.2546395891        0.0756456801        1.5054778231
 N         -2.7891809693       -0.5880140432        1.0893106880
 S         -3.6274919542       -1.5708350470        0.0144867690
 O         -3.6741322819       -2.8679528366        0.6555885567
 O         -3.0552121892       -1.5298209963       -1.3111094774
 C         -5.2669735626       -0.8758246288       -0.0008235170
 C         -5.8417311884       -0.4956482004       -1.1976446014
 C         -7.1216667389        0.0370063976       -1.1868057711
 C         -7.8002380097        0.1781307592        0.0139691018
 C         -7.2097691182       -0.2113818186        1.2070935565
 C         -5.9312514103       -0.7456731528        1.2031801319
 H         -5.4379725502       -1.0640458392        2.1062633923
 H         -7.7406828045       -0.1001502007        2.1387367402
 H         -8.7953605348        0.5940386211        0.0197300568
 H         -7.5820495256        0.3396082926       -2.1135854877
 H         -5.2724389382       -0.6185494256       -2.1054481106
 H         -2.2106743482       -1.1517489776        1.6958665615
 H         -3.8485561168        1.2480161620       -0.4763418663
 H         -2.6834587282        3.2360523972       -1.3654634120
 H         -0.3213698891        3.6348492467       -0.8364811325
 H          1.4055523815        2.0134472192        1.8505457141
 C          1.9201297750        3.3858768234        0.3246894451
 C          3.3892353655        3.5291521506        0.0648025779
 C          2.4140361731        3.6421944182       -1.0664034289
 H          2.2438200267        4.6179372900       -1.4976779540
 H          2.3489164125        2.8337907040       -1.7774078697
 H          3.8877443059        4.4226343644        0.4094809591
 H          3.9972143783        2.6380965043        0.1279534191
 H          1.4406881995        4.2181538203        0.8307675271
