  62
        -98.94393700
 C          1.8256189088        1.1404613004        0.2461783365
 C          2.1448721663        0.1298269671       -0.6920844658
 C          3.5706522605       -0.0015940407       -1.0279304231
 C          4.4624429610        0.8323262678       -0.4623278163
 C          5.9472798282        0.7710241818       -0.6719491313
 C          6.6194333218       -0.1226722135        0.3799180067
 C          5.9490350682       -1.4857298999        0.5521148522
 H          4.9466036949       -1.3420022149        0.9619210998
 H          6.5243562432       -2.0395314900        1.2971725848
 C          5.8523955279       -2.3131910802       -0.7372010537
 H          6.1465637848       -3.3414779414       -0.5166116265
 H          6.5533271934       -1.9277964206       -1.4785427956
 C          4.4513699940       -2.3731221682       -1.3490899726
 H          3.7278592055       -2.6699890659       -0.5851175799
 H          4.4490122038       -3.1494750526       -2.1190311420
 C          3.9533147452       -1.0783515794       -2.0037351181
 H          3.0407524619       -1.3172129929       -2.5582451716
 H          4.6997984861       -0.7123035609       -2.7116980763
 H          6.5936566294        0.3951270856        1.3414618104
 H          7.6642638752       -0.2626410943        0.0971264533
 H          6.1524680277        0.3919502868       -1.6711113243
 H          6.3487343794        1.7821483644       -0.5866668170
 O          4.1129642159        1.8066917482        0.4159562377
 C          2.7933878560        1.9770109650        0.8019077426
 O          2.6128703248        2.8892695540        1.6335286107
 H         -2.0350132987        0.1385432172        0.1060869692
 C         -1.4445536209       -0.4077816114        0.8220809983
 C         -0.1964446405        0.0598483529        1.2034064029
 C          0.5350044530       -0.6739268795        2.1342307479
 C          0.0424205806       -1.8582537109        2.6452393841
 C         -1.1927982349       -2.3348026195        2.2426516302
 C         -1.9397058648       -1.6027413929        1.3279311588
 N         -3.2169019304       -2.0365077355        0.9515784875
 S         -3.8595536130       -1.7257457025       -0.5585897889
 O         -4.9714020533       -2.6489421169       -0.6598736522
 O         -2.8748085249       -1.8090299922       -1.6103759447
 C         -4.5059832751       -0.0706016952       -0.4412719890
 C         -5.1225630176        0.3309722606        0.7272364762
 C         -5.6651023304        1.6043242549        0.7935339215
 C         -5.5922584729        2.4469858026       -0.3051899932
 C         -4.9747870861        2.0268460446       -1.4731755128
 C         -4.4250070886        0.7560246731       -1.5441374207
 H         -3.9236829090        0.3931071371       -2.4277159463
 H         -4.9188063475        2.6824494114       -2.3279714829
 H         -6.0163178441        3.4372073827       -0.2517668218
 H         -6.1442810348        1.9354938346        1.7006738865
 H         -5.1628569797       -0.3495470427        1.5610300828
 H         -3.4815229427       -2.9478994687        1.2947000036
 H         -1.5755632460       -3.2654028005        2.6331750818
 H          0.6262703587       -2.4204006300        3.3587645532
 H          1.5036506261       -0.3046083207        2.4439449371
 C          0.3839053636        1.3480381533        0.6734481770
 H          0.4155291748        2.0733806178        1.5001168920
 C         -0.4169679356        1.9472925559       -0.4640213885
 C         -1.5692310427        2.8596467769       -0.1717221013
 C         -0.2964247638        3.4160823751       -0.7335944430
 H         -0.2862177864        3.7524685580       -1.7594216968
 H          0.3494101766        3.9854470530       -0.0808699510
 H         -1.7952083283        3.0602807686        0.8644892945
 H         -2.4376929424        2.8152277707       -0.8112214752
 H         -0.4885824913        1.2833888453       -1.3189494844
 O          1.2876038086       -0.6260062332       -1.2203029926
