  62
        -98.94421678
 C         -2.2880650544       -1.0594735921        0.2174200717
 C         -2.4448397994        0.1174102849       -0.5539551296
 C         -3.4166723868        1.0968600408       -0.0427003040
 C         -4.0523744125        0.8609921928        1.1185959679
 C         -5.0977584291        1.7501553414        1.7253269747
 C         -6.5053327009        1.3488095693        1.2619635694
 C         -6.6304902602        1.1720091911       -0.2513023197
 H         -6.0237173876        0.3183506870       -0.5617106186
 H         -7.6717288433        0.9207505423       -0.4642186117
 C         -6.2246495657        2.4053746291       -1.0701125911
 H         -6.2218701627        3.2897276804       -0.4318900183
 H         -6.9720402000        2.5701666093       -1.8490689527
 C         -4.8706258815        2.2837672713       -1.7717088318
 H         -4.8349464704        1.3507804598       -2.3397859599
 H         -4.7832151068        3.1060280663       -2.4869709961
 C         -3.6385827372        2.3393235855       -0.8593022043
 H         -2.7556992779        2.4416822987       -1.4973441265
 H         -3.6962566540        3.2188076911       -0.2145631379
 H         -7.2098544599        2.1103498254        1.6011084990
 H         -6.7702301831        0.4030638394        1.7402416894
 H         -5.0406226177        1.6548872873        2.8109853639
 H         -4.8932998113        2.7831990082        1.4506660754
 O         -3.8430350725       -0.2575910122        1.8571119880
 C         -2.9749202969       -1.2427378476        1.4227484141
 O         -2.9003289903       -2.2270351505        2.1846909136
 H          0.2629473101       -0.3860148382       -1.3871569613
 C          0.7626489342       -0.8914721124       -0.5744679989
 C          0.0733963417       -1.8477548650        0.1571014186
 C          0.7166297929       -2.4562126648        1.2291096009
 C          2.0190219393       -2.1189728275        1.5519804701
 C          2.7055433387       -1.1702727661        0.8150390263
 C          2.0658244593       -0.5446908677       -0.2467577102
 N          2.7485877654        0.4241152796       -1.0022287548
 S          3.5877677851        1.6255248052       -0.1860319045
 O          2.9988390299        1.9091663012        1.1029688002
 O          3.6673184154        2.7326191503       -1.1140372871
 C          5.2146229852        0.9300726383        0.0221889025
 C          5.8584067278        0.4358239391       -1.0954888229
 C          7.1272191394       -0.1025868939       -0.9535593615
 C          7.7292087058       -0.1346826068        0.2956120657
 C          7.0716238032        0.3692739743        1.4072079116
 C          5.8014834760        0.9083844717        1.2721811586
 H          5.2493798362        1.3054438678        2.1093000424
 H          7.5409933311        0.3438962998        2.3775507270
 H          8.7165026730       -0.5553091408        0.4034648575
 H          7.6414642351       -0.4957282282       -1.8156961760
 H          5.3566684005        0.4810858096       -2.0475828500
 H          2.1872589433        0.8187143871       -1.7437701426
 H          3.7186944983       -0.9008300819        1.0649271003
 H          2.5060627165       -2.5999293353        2.3865933523
 H          0.1792103415       -3.1840331514        1.8199380312
 C         -1.3571933377       -2.1976945614       -0.1773665549
 H         -1.6478431583       -3.0457404668        0.4566942774
 C         -1.5133045182       -2.6108702376       -1.6277536167
 C         -1.0355450695       -3.9664287070       -2.0495562455
 C         -2.5043759756       -3.6768256931       -1.9811504871
 H         -3.0570480198       -3.5804482731       -2.9037356322
 H         -3.0748366510       -4.1161508465       -1.1754853192
 H         -0.5768824570       -4.0716289531       -3.0206159886
 H         -0.6096783557       -4.6038634781       -1.2895597289
 H         -1.3967324972       -1.7941088086       -2.3273152001
 O         -1.8220407976        0.3614751347       -1.6229145869
