  62
        -98.93776074
 C         -1.4673271196       -1.6434528558       -0.1689243994
 C         -1.3744069485       -0.2317146091       -0.2191062706
 C         -2.6478372036        0.5050970791       -0.3562336870
 C         -3.8099421961       -0.1709591066       -0.3922324937
 C         -5.2376832449        0.3064817413       -0.5584861349
 C         -5.5917708630        1.7816286934       -0.3881516237
 C         -5.4346623131        2.3184957201        1.0343201236
 H         -6.2044112491        1.8641382244        1.6634647597
 H         -5.6160439701        3.3953519270        1.0142479346
 C         -4.0843533154        2.0538831863        1.6961412343
 H         -3.9379717635        0.9780160840        1.8126463812
 H         -4.1160807145        2.4833265068        2.7012763935
 C         -2.8740304156        2.6447016653        0.9755407180
 H         -2.0069242715        2.5129084187        1.6281364054
 H         -3.0235318878        3.7156431603        0.8262952704
 C         -2.5309147544        2.0017021566       -0.3790171568
 H         -1.4814674808        2.2192456247       -0.5971307810
 H         -3.1312800471        2.4226974523       -1.1817632930
 H         -6.6455035661        1.8813481940       -0.6629713529
 H         -5.0259486436        2.3879548345       -1.0891431225
 H         -5.8330313212       -0.2877591233        0.1421675710
 H         -5.5419704248       -0.0084970084       -1.5629321043
 O         -3.8492385440       -1.5348317840       -0.3150710778
 C         -2.7009849168       -2.2953512551       -0.1870444726
 O         -2.9090614331       -3.5218085491       -0.0915752202
 O         -0.2922203274        0.4033467717       -0.1596076982
 C         -0.2348054357       -2.5187452512       -0.0167217263
 C          0.6844692682       -1.9187633722        1.0172852039
 C          0.2602826903       -1.8737802603        2.3427759876
 C          1.0517322665       -1.2993102675        3.3182870009
 C          2.2789815255       -0.7505761489        2.9905946031
 C          2.7120933427       -0.7939131809        1.6706993007
 C          1.9217404654       -1.3852154833        0.6953255924
 H          2.2767579830       -1.3982081998       -0.3207582728
 N          3.9574213600       -0.2586994943        1.3165648155
 S          4.2462089697        0.3907142254       -0.1910757455
 O          4.3402250365       -0.6597210993       -1.1750350631
 O          5.4517491916        1.1729242326       -0.0014559115
 C          2.9022040087        1.4948610666       -0.5820328720
 C          2.3172472497        1.4265156451       -1.8279096110
 C          1.3280816722        2.3380636726       -2.1562055263
 C          0.9424559191        3.2978723594       -1.2352923752
 C          1.5347428503        3.3487612865        0.0164179485
 C          2.5267089793        2.4421036837        0.3480954812
 H          3.0078155053        2.4642498824        1.3127242105
 H          1.2218490644        4.0896625131        0.7349830007
 H          0.1720133327        4.0083670345       -1.4930893230
 H          0.8565038819        2.2902092555       -3.1253980385
 H          2.6410239528        0.6595466586       -2.5133328422
 H          4.4317863915        0.2525579202        2.0454220411
 H          2.8959941656       -0.2920478984        3.7483430911
 H          0.7080454379       -1.2691689450        4.3414300539
 H         -0.7074680389       -2.2868573173        2.5949922493
 H         -0.6101056520       -3.4785299062        0.3756165469
 C          0.4703574398       -2.8301305996       -1.3279973201
 C         -0.3035887786       -2.9874782563       -2.6016870706
 C          0.6153266767       -1.8182018629       -2.4226593199
 H          1.5425715072       -1.8025833525       -2.9777911557
 H          0.1850191628       -0.8423784869       -2.2617756607
 H         -0.0149867100       -3.7729321222       -3.2839368573
 H         -1.3690843587       -2.8127953536       -2.5624798152
 H          1.3045141410       -3.5113593704       -1.1857025752
