  62
        -98.94911451
 C         -1.2975409110       -1.5262434592        0.5574847714
 C         -2.2481145112       -1.1813870096       -0.4338217385
 C         -3.2050323309       -0.1333829392       -0.0595956089
 C         -3.1402243505        0.4313978215        1.1594500008
 C         -4.0280580701        1.5307136120        1.6747134003
 C         -3.5650536600        2.9327587617        1.2541556694
 C         -3.8176282703        3.2885817308       -0.2116599108
 H         -4.8575112104        3.0773334909       -0.4648447404
 H         -3.6693022701        4.3661247507       -0.3075842915
 C         -2.8868698607        2.5779840400       -1.2046821706
 H         -2.5223896908        3.3004617895       -1.9395571212
 H         -2.0051830806        2.2047568102       -0.6766262606
 C         -3.5391955712        1.4343514597       -1.9829705497
 H         -2.7728577214        0.9685522092       -2.6081661697
 H         -4.3134370013        1.8371141194       -2.6406135498
 C         -4.1651288811        0.3408657103       -1.1079196389
 H         -5.0837196709        0.7052959008       -0.6487120189
 H         -4.4054635415       -0.5114386900       -1.7484990283
 H         -2.4965622899        3.0275189516        1.4656760290
 H         -4.0956637596        3.6549392021        1.8795014991
 H         -4.0003379498        1.4706829526        2.7649092504
 H         -5.0534606402        1.3671727520        1.3421643407
 O         -2.2310033503        0.0506926119        2.0951400907
 C         -1.2606549805       -0.8928236485        1.7987683910
 O         -0.4321024903       -1.0830007681        2.7144610109
 O         -2.2905989716       -1.7086905603       -1.5758083082
 C         -0.1791288113       -2.4967166096        0.2272757517
 C          0.6820628385       -1.9211883504       -0.8745226689
 C          1.3098171481       -2.6943926311       -1.8432786686
 C          2.0968671279       -2.0942769619       -2.8117785492
 C          2.2905437882       -0.7242917719       -2.8297137601
 C          1.6699483486        0.0568881688       -1.8615597004
 C          0.8794406888       -0.5484097805       -0.8996720898
 H          0.3830979691        0.0726669200       -0.1716767300
 N          1.8158391089        1.4512809088       -1.8350422713
 S          1.8304878595        2.2685494496       -0.3765320818
 O          0.5154410296        2.2913496403        0.2125567486
 O          2.3952035096        3.5602553493       -0.7052603527
 C          2.9828211796        1.3573974600        0.6356330985
 C          2.5497887397        0.5455132507        1.6633105691
 C          3.4874275398       -0.1844201390        2.3785926492
 C          4.8323310297       -0.0905585894        2.0592178288
 C          5.2533771496        0.7378072399        1.0293576382
 C          4.3218923095        1.4655520896        0.3088349680
 H          4.6084503294        2.1302827491       -0.4898709325
 H          6.3007568595        0.8151929495        0.7862650978
 H          5.5548546698       -0.6636378692        2.6184221690
 H          3.1487491599       -0.8238977085        3.1782843697
 H          1.4992624298        0.4814882411        1.9017070594
 H          2.4821273288        1.8301890582       -2.4909865017
 H          2.9025764681       -0.2620487225       -3.5886939705
 H          2.5714803976       -2.7049116324       -3.5647408590
 H          1.1749592379       -3.7637362911       -1.8455996479
 H          0.4419871890       -2.5651253792        1.1336170315
 C         -0.7237917316       -3.8726727497       -0.0947524073
 C          0.0634389183       -5.0990476296        0.2543606032
 C         -1.1693661015       -4.7535857489        1.0325070533
 H         -2.0549106616       -5.3560771488        0.8974044739
 H         -1.0523689211       -4.3699590784        2.0359432631
 H          0.0228040779       -5.9451261300       -0.4150259863
 H          1.0190547784       -4.9614481495        0.7374897128
 H         -1.3164108019       -3.8823126001       -1.0017714772
