  62
        -98.94306332
 C         -1.8613770081       -0.7682712604        0.7319959017
 C         -2.8256840105       -1.1902270618       -0.2162336059
 C         -4.1751981048       -0.6262957663       -0.0535828099
 C         -4.4248588117        0.2233442223        0.9580346158
 C         -5.7351862165        0.9144507204        1.1977270541
 C         -5.7843916852        2.2739285699        0.4862630406
 C         -5.3595243103        2.2196857567       -0.9813420467
 H         -5.4631250843        3.2286658149       -1.3865362125
 H         -4.2996279858        1.9598819598       -1.0361133041
 C         -6.1677983833        1.2376652841       -1.8409618030
 H         -7.1020825193        0.9871922734       -1.3371633983
 H         -6.4280992512        1.7286358160       -2.7810501216
 C         -5.4248189617       -0.0501102516       -2.2011615035
 H         -4.4464025485        0.1969945853       -2.6207159985
 H         -5.9949133443       -0.5645717285       -2.9792467867
 C         -5.2187502036       -1.0441715859       -1.0514278810
 H         -6.1718697181       -1.2360678103       -0.5549043518
 H         -4.8605787569       -1.9826177119       -1.4842206201
 H         -6.8010168797        2.6647675392        0.5587668691
 H         -5.1174187727        2.9629594605        1.0099457362
 H         -6.5452853526        0.2788530857        0.8454805195
 H         -5.8495393115        1.0720474181        2.2715706919
 O         -3.4809152428        0.5890978183        1.8628742375
 C         -2.1849213041        0.1134392762        1.7678382800
 O         -1.4224447602        0.5342444299        2.6622340875
 H          1.3765613545        0.7484145066        1.0685882805
 C          1.2402116504        0.5176732646        0.0221975060
 C          0.3522175271       -0.4786209554       -0.3603476521
 C          0.1739856588       -0.7301360451       -1.7173807772
 C          0.8676090992        0.0033219099       -2.6619608903
 C          1.7633121329        0.9853459160       -2.2765215136
 C          1.9469365862        1.2470051635       -0.9245017719
 N          2.8483750073        2.2416472674       -0.5015301238
 S          3.9980134116        1.8396441670        0.6470100361
 O          3.3822764460        1.6801785903        1.9388982247
 O          5.0016544536        2.8753726349        0.5380065751
 C          4.6544632151        0.2854553842        0.0701388546
 C          4.1486589630       -0.8961612216        0.5721020498
 C          4.6042406384       -2.0956588517        0.0481954638
 C          5.5520467800       -2.0918367640       -0.9632894995
 C          6.0561558256       -0.8961383921       -1.4524313862
 C          5.6003580017        0.3058199725       -0.9364366279
 H          5.9710546642        1.2571971398       -1.2822488661
 H          6.7974602740       -0.8975529607       -2.2351530564
 H          5.9011088501       -3.0276425236       -1.3701257045
 H          4.2134409499       -3.0258992536        0.4285217488
 H          3.4166479062       -0.8546815622        1.3623625022
 H          3.2804973541        2.7491330024       -1.2607664847
 H          2.3077264895        1.5545488362       -3.0148710856
 H          0.7141008641       -0.1962057737       -3.7115729783
 H         -0.5363505849       -1.4812179857       -2.0242629678
 C         -0.4129600994       -1.2359517093        0.6990318680
 H          0.0060717258       -0.9547055184        1.6749466374
 C         -0.2821761567       -2.7373525809        0.5378524161
 C          0.9621332685       -3.4152267131        1.0226318072
 C         -0.3302192862       -3.6055146798        1.7574393057
 H         -0.8302641936       -4.5600431356        1.6908221246
 H         -0.4508994404       -3.1168987176        2.7140070362
 H          1.3537645465       -4.2420308274        0.4506461464
 H          1.7164870922       -2.7985620150        1.4875413466
 H         -0.7518439062       -3.1211817868       -0.3572243360
 O         -2.5982634135       -1.9963082858       -1.1553426191
