  62
        -98.93839759
 C         -2.5167810878       -0.1344560675        0.4585414676
 C         -2.2512325710        0.5741700934       -0.7346731528
 C         -1.9139175342        2.0052063253       -0.6011243269
 C         -1.8730086153        2.5502280337        0.6285764090
 C         -1.5452382134        3.9676682210        1.0219512070
 C         -0.0444862554        4.2795790135        0.9507970690
 C          0.6405022518        3.8337981611       -0.3375437450
 H          0.5708040838        2.7475595648       -0.4223378074
 H          1.7031149111        4.0745686467       -0.2429394281
 C          0.1229244162        4.4971673913       -1.6124096724
 H          0.7907150251        4.1952680931       -2.4229395590
 H          0.1977498285        5.5818629770       -1.5061682413
 C         -1.3079605957        4.1429034907       -2.0285080073
 H         -1.4200419166        4.4257869045       -3.0791715959
 H         -2.0407034364        4.7231504434       -1.4735328275
 C         -1.6436528242        2.6585062754       -1.9343543274
 H         -0.8412280503        2.0742222026       -2.3997449583
 H         -2.5349288931        2.4581017327       -2.5409090972
 H          0.4493069370        3.7688433404        1.7818421116
 H          0.0876303707        5.3552734638        1.0858886693
 H         -1.8754929303        4.0852877707        2.0569107195
 H         -2.1103367649        4.6665908256        0.4121826967
 O         -2.1330555463        1.8225455658        1.7555252336
 C         -2.4329660103        0.4764902958        1.7063983151
 O         -2.6138808282       -0.0568893542        2.8230881640
 O         -2.2946110128        0.0403064438       -1.8751164768
 C         -2.8100994639       -1.6216487799        0.4075035801
 C         -1.6673946713       -2.3531638196       -0.2574072686
 C         -1.8446188002       -3.4721892426       -1.0605658981
 C         -0.7510645053       -4.1040500080       -1.6290168042
 C          0.5310644270       -3.6296586719       -1.4260649616
 C          0.7180796984       -2.5051161477       -0.6273241283
 C         -0.3741078668       -1.9004078746       -0.0306218414
 H         -0.2169465773       -1.0458279266        0.6115731131
 N          2.0007727836       -1.9579273335       -0.4592797013
 S          2.2785679457       -0.6554065597        0.5604488304
 O          2.0348274384       -1.0179163798        1.9418422591
 O          1.5664959301        0.4905906611        0.0570643674
 C          4.0295141455       -0.4466973982        0.2976272228
 C          4.4559669430        0.3134489632       -0.7745999638
 C          5.8164473662        0.4520029681       -0.9994951424
 C          6.7233504297       -0.1696933827       -0.1540551155
 C          6.2810344248       -0.9275214547        0.9197984142
 C          4.9216114353       -1.0699146354        1.1496925720
 H          4.5316013614       -1.6387342995        1.9784696526
 H          6.9880044777       -1.4066027679        1.5777610672
 H          7.7815562058       -0.0600660668       -0.3311787734
 H          6.1634697231        1.0436929251       -1.8311300224
 H          3.7132675784        0.7835317175       -1.3982527242
 H          2.7525785145       -2.6309363064       -0.4698820557
 H          1.3796907118       -4.1123812971       -1.8848535391
 H         -0.9022124361       -4.9757131301       -2.2476055934
 H         -2.8382211263       -3.8482570789       -1.2426820115
 H         -2.8650402048       -1.9560324454        1.4553090102
 C         -4.1473545000       -1.8766748147       -0.2585214672
 C         -5.0083142936       -3.0228276246        0.1779370835
 C         -5.4009391195       -1.6180130774        0.5202450885
 H         -6.2434185269       -1.1755247871        0.0104892737
 H         -5.2857655661       -1.2866433095        1.5424543711
 H         -5.5871560295       -3.5460433286       -0.5682032965
 H         -4.6395367203       -3.6510992581        0.9748174234
 H         -4.1433018902       -1.6050467884       -1.3078251785
