  62
        -98.93449524
 C         -2.4022506805       -1.1940624898       -0.0482443704
 C         -2.3110243503        0.2131441001        0.0487431807
 C         -3.5607720003        0.9327794399        0.3601626714
 C         -4.7005031803        0.2375184499        0.5327941709
 C         -6.1015716703        0.6903546297        0.8882053913
 C         -6.4931879402        2.1630419098        0.7994746525
 C         -6.5291525002        2.7317298310       -0.6186705670
 H         -7.3668650702        2.2777817315       -1.1538437573
 H         -6.7194724101        3.8050549109       -0.5516003561
 C         -5.2722182902        2.5022758616       -1.4542448772
 H         -5.4369323902        2.9521287124       -2.4371279368
 H         -5.1252556403        1.4318306817       -1.6118008781
 C         -3.9880330501        3.0987395610       -0.8812199868
 H         -4.1310858000        4.1633058308       -0.6856687759
 H         -3.2096520702        3.0010184216       -1.6432066669
 C         -3.4625293301        2.4305963399        0.4012582326
 H         -2.3971281201        2.6640507297        0.4915339028
 H         -3.9582483001        2.8250617392        1.2850966230
 H         -7.5033152901        2.2407638095        1.2106103226
 H         -5.8481771401        2.7631560292        1.4343975030
 H         -6.7727953103        0.1029192803        0.2538540208
 H         -6.2714785003        0.3486438188        1.9151359110
 O         -4.7322601204       -1.1253713101        0.4459908897
 C         -3.6038321305       -1.8694881899        0.1549174390
 O         -3.7960110806       -3.1012386199        0.1103210180
 H          1.4319790795       -1.1243921096       -0.7345137605
 C          1.1731719195       -1.2993634604        0.2952279793
 C         -0.0914110105       -1.7480643106        0.6400257490
 C         -0.3831923505       -1.9605448917        1.9854729388
 C          0.5621363696       -1.7111115826        2.9603933590
 C          1.8146842796       -1.2348135524        2.6140914794
 C          2.1198534496       -1.0283364613        1.2745894095
 N          3.4044537096       -0.5849690911        0.9003439899
 S          3.5614806397        0.6598572498       -0.2326913391
 O          2.9314094698        1.8667595895        0.2561989119
 O          3.1439097396        0.1862295409       -1.5264490295
 C          5.3351907097        0.8532150497       -0.2136264190
 C          5.9036325798        1.8829455490        0.5114664418
 C          7.2842144098        2.0050944589        0.5347652119
 C          8.0688214797        1.0985318194       -0.1617551289
 C          7.4838390596        0.0702791600       -0.8859989198
 C          6.1042747796       -0.0565093598       -0.9139517198
 H          5.6051202095       -0.8331795693       -1.4693115404
 H          8.0970870895       -0.6307962896       -1.4287974404
 H          9.1428342297        1.1957411393       -0.1426538489
 H          7.7412629899        2.8054757084        1.0941023825
 H          5.2534891199        2.5697437486        1.0294022424
 H          3.9657379797       -0.3538112118        1.7108357200
 H          2.5500370797       -1.0255314531        3.3766950895
 H          0.3205056596       -1.8775325235        3.9995927989
 H         -1.3690169505       -2.3171451219        2.2536931386
 C         -1.1704409305       -2.0175286597       -0.3801574212
 H         -1.4755032206       -3.0702803697       -0.2874464620
 C         -0.7369205106       -1.7612808385       -1.8078708010
 C          0.0291892193       -2.8075242679       -2.5581681219
 C         -1.3971512907       -2.5208301275       -2.9173523216
 H         -1.6042526907       -2.0047156767       -3.8428761611
 H         -2.1511555707       -3.2439194277       -2.6414215622
 H          0.2458553692       -3.7311832084       -2.0430873827
 H          0.8063890693       -2.4861726774       -3.2350959416
 H         -0.4914160905       -0.7207894584       -1.9918516001
 O         -1.2354551603        0.8493478001       -0.1108381288
