  62
        -98.94472474
 C          1.5047114363        1.7733695733       -0.4707650390
 C          1.5372577551        0.6005593387       -1.2661304506
 C          2.7413847202       -0.2363485967       -1.1280633266
 C          3.7106852401        0.1255139822       -0.2705792947
 C          4.9594067915       -0.6609587780        0.0020400623
 C          4.7654248419       -1.6350713713        1.1717856107
 C          3.5109716656       -2.5023037168        1.0599877310
 H          3.5095516533       -3.1836822569        1.9141719391
 H          2.6202034584       -1.8762874734        1.1562606872
 C          3.4097948046       -3.3132758959       -0.2391114940
 H          3.0913516310       -4.3280925407        0.0088346860
 H          4.3904939278       -3.3852307495       -0.7123676813
 C          2.3940227506       -2.7619081430       -1.2413110549
 H          1.4476710925       -2.5798418319       -0.7252396577
 H          2.2139794069       -3.5274665304       -2.0015254924
 C          2.8120714644       -1.4785157607       -1.9709778100
 H          3.8133272404       -1.6030261738       -2.3899872472
 H          2.1107159046       -1.3221987753       -2.7960215809
 H          5.6463980883       -2.2771456883        1.2339306777
 H          4.6997068577       -1.0576341449        2.0969881201
 H          5.2405373312       -1.2079590336       -0.8959236774
 H          5.7571515991        0.0400159082        0.2546981796
 O          3.6436936118        1.2535729929        0.4831856854
 C          2.5415032548        2.0876945563        0.4114659367
 O          2.6037111366        3.0813143600        1.1650956133
 O          0.6293837577        0.2532509961       -2.0633162831
 C          0.3355557846        2.7451828813       -0.4500358435
 C         -0.6428481251        2.3810917560        0.6402690868
 C         -1.2760758568        3.3631189780        1.3937129307
 C         -2.1717384345        3.0134087488        2.3888126334
 C         -2.4434280504        1.6846668976        2.6590707091
 C         -1.7994787559        0.6927797460        1.9250103406
 C         -0.9194066662        1.0499975014        0.9138968116
 H         -0.4177323598        0.2768654555        0.3575225939
 N         -2.0089413011       -0.6543869559        2.2246882029
 S         -1.6697540431       -1.9311388849        1.2087822839
 O         -2.1587959183       -3.0803309704        1.9414735036
 O         -0.2715605115       -1.9477690152        0.8660729858
 C         -2.7038519756       -1.6843754062       -0.2221287122
 C         -4.0520140250       -1.9489494906       -0.0624794302
 C         -4.9081783789       -1.7611796590       -1.1335402518
 C         -4.4037728402       -1.3147018950       -2.3464682626
 C         -3.0503937582       -1.0580913809       -2.4905031281
 C         -2.1858788633       -1.2398507212       -1.4203408691
 H         -1.1322653588       -1.0286300582       -1.5196100694
 H         -2.6500680012       -0.7116458997       -3.4296770236
 H         -5.0680529875       -1.1682950755       -3.1835651204
 H         -5.9612195356       -1.9637893248       -1.0222831957
 H         -4.3984681975       -2.3147471979        0.8904286142
 H         -2.7360763588       -0.8574942145        2.8917328057
 H         -3.1305881900        1.4123142109        3.4452524594
 H         -2.6587282652        3.7839202197        2.9669922973
 H         -1.0456219442        4.4026232061        1.2125215923
 H          0.7716219109        3.7214226902       -0.1813682321
 C         -0.3371962805        2.9061429961       -1.8066160866
 C         -1.6782647045        2.3264735048       -2.1286200053
 C         -1.5261605470        3.8071316043       -1.9664811861
 H         -1.5799672943        4.4327019388       -2.8445827676
 H         -1.9396875669        4.2567990058       -1.0772539467
 H         -1.8223446089        1.9213819183       -3.1177827268
 H         -2.1909290555        1.7745666288       -1.3556453693
 H          0.3882858543        2.9150979331       -2.6132654542
