  62
        -98.93902604
 C          2.3453185284       -1.2560000638        0.1159324147
 C          3.3108129754       -0.7647693896       -0.7976306166
 C          4.1608615815        0.3552795714       -0.3521929225
 C          3.9739101470        0.8530804493        0.8841115736
 C          4.6769554345        2.0099830575        1.5431145825
 C          4.1913920657        3.3718444933        1.0220343414
 C          4.0445987194        3.4638068453       -0.4944925111
 H          3.3390149744        2.7022208106       -0.8323632293
 H          3.6025012646        4.4366778691       -0.7255341902
 C          5.3461256503        3.3414336435       -1.2836822836
 H          6.0354009382        4.1244042539       -0.9599569184
 H          5.1049838647        3.5247015533       -2.3338096400
 C          6.0625971420        1.9922514125       -1.1906967146
 H          6.8110429974        1.9667516883       -1.9879546999
 H          6.6062713079        1.8989210499       -0.2544702304
 C          5.1628115318        0.7784400690       -1.3993136079
 H          4.5940487726        0.9079371032       -2.3270482133
 H          5.7960867682       -0.1002843729       -1.5707305660
 H          4.8826763199        4.1408207275        1.3711909765
 H          3.2115861714        3.5728635681        1.4630868715
 H          4.4516298364        1.9463357603        2.6100631922
 H          5.7519163360        1.9113739979        1.4249180397
 O          3.0299001816        0.3520362932        1.7299978169
 C          2.1951335027       -0.6938147412        1.3827165411
 O          1.3967685912       -1.0158703033        2.2863750511
 H         -0.5927143093       -1.7640252013        1.3256473995
 C         -0.8359619417       -1.5575269111        0.2947054629
 C          0.0941210679       -1.8344190191       -0.6968868892
 C         -0.2231365725       -1.5163418856       -2.0134386417
 C         -1.4405520203       -0.9386175333       -2.3259197625
 C         -2.3617381988       -0.6566921438       -1.3325745311
 C         -2.0474150672       -0.9562443934       -0.0138878561
 N         -2.9670516578       -0.6451390135        1.0071520011
 S         -3.4779430553        0.9554928670        1.0885338965
 O         -2.4905639649        1.8587687584        0.5422908685
 O         -3.8560275253        1.1698585407        2.4685788408
 C         -4.9474898518        0.9747151237        0.0816871708
 C         -5.0511879708        1.8614761197       -0.9720139703
 C         -6.2079672433        1.8618064500       -1.7362018299
 C         -7.2350461371        0.9809179279       -1.4339278527
 C         -7.1161994518        0.0981944151       -0.3705917507
 C         -5.9630302986        0.0933178518        0.3976655599
 H         -5.8310503442       -0.5727712234        1.2338093318
 H         -7.9169406437       -0.5853213018       -0.1386088166
 H         -8.1334279350        0.9825234278       -2.0307352553
 H         -6.3018068524        2.5473541465       -2.5630750579
 H         -4.2236023181        2.5232602016       -1.1726087474
 H         -2.6528415167       -0.9480730687        1.9189968809
 H         -3.3077703990       -0.1962177882       -1.5665497149
 H         -1.6734430081       -0.7004445646       -3.3526092937
 H          0.5052014833       -1.7087335800       -2.7882578826
 C          1.4543385734       -2.3940512832       -0.3576283289
 H          1.9144804467       -2.7488210306       -1.2893739161
 C          1.3926140127       -3.5487695500        0.6206455688
 C          0.8758638788       -4.8732237882        0.1468593020
 C          2.3331208296       -4.7025616048        0.4509061991
 H          2.7358037951       -5.1715682990        1.3361553533
 H          3.0268059793       -4.6646328377       -0.3762239035
 H          0.5803803404       -4.9499788501       -0.8884861064
 H          0.2747591915       -5.4629548835        0.8216697601
 H          1.1609283708       -3.2487894144        1.6344254909
 O          3.4633671459       -1.2445509338       -1.9530110438
