  62
        -98.94512565
 C         -1.3439514901       -1.2788356992       -0.0955323101
 C         -1.5114069300        0.1196640507       -0.2551191407
 C         -2.7355641000        0.6869748310        0.3297819890
 C         -3.6065625301       -0.1026307387        0.9808502892
 C         -4.8844364302        0.3379071816        1.6420664689
 C         -6.0734082101        0.4678887413        0.6798236587
 C         -6.0202363099        1.6683491009       -0.2663907817
 H         -7.0092565299        1.7623637308       -0.7192907519
 H         -5.8391087999        2.5759277211        0.3103960780
 C         -4.9751928598        1.5494358805       -1.3845458816
 H         -4.6650101598        0.5067725704       -1.4832730312
 H         -5.4251540797        1.8419885202       -2.3358725817
 C         -3.7321337098        2.4168114605       -1.1848587117
 H         -3.0413426497        2.2225798502       -2.0089473616
 H         -4.0108520097        3.4724831505       -1.2194875221
 C         -2.9876316699        2.1510557609        0.1295827584
 H         -3.5497100500        2.5579529313        0.9702916882
 H         -2.0166130899        2.6521460709        0.0895509684
 H         -6.1520886900       -0.4524756989        0.0966455390
 H         -6.9761508901        0.5533835115        1.2891482386
 H         -5.1261307403       -0.4226274582        2.3878287791
 H         -4.7230177202        1.2868063917        2.1549292886
 O         -3.4049920402       -1.4390722187        1.1278083297
 C         -2.2848645402       -2.0519088989        0.5919937900
 O         -2.2403513002       -3.2841132589        0.7866229305
 O         -0.7033906299        0.8793786405       -0.8493534409
 C         -0.1462061800       -2.0530284295       -0.6209332197
 C          1.0073074599       -2.0268820592        0.3538473804
 C          1.6508210598       -3.2025067091        0.7229244209
 C          2.7364015797       -3.1706558688        1.5794896510
 C          3.2125650697       -1.9667874286        2.0655981206
 C          2.5726037598       -0.7850602387        1.7061956401
 C          1.4712052299       -0.8225516590        0.8625916400
 H          0.9703996799        0.0977625009        0.6096309296
 N          3.0342424498        0.4460241414        2.1831870697
 S          2.7716798099        1.8619634511        1.3389865492
 O          3.8440994599        2.7309735212        1.7844726190
 O          1.4399496199        2.3522083613        1.5893794289
 C          3.0042355201        1.4746567905       -0.3872546307
 C          4.0784894401        0.6882593103       -0.7550813603
 C          4.2635875002        0.3915971498       -2.0950756501
 C          3.3807951104        0.8898556295       -3.0410777804
 C          2.3156761004        1.6881382197       -2.6563401608
 C          2.1227179002        1.9858283602       -1.3162861509
 H          1.2851385902        2.5732464003       -0.9777485612
 H          1.6233456305        2.0723262095       -3.3884440410
 H          3.5220897605        0.6542269591       -4.0843604203
 H          5.0911132102       -0.2300189103       -2.3966986798
 H          4.7511715000        0.3151397005       -0.0002369600
 H          3.9249781397        0.4307062615        2.6561797598
 H          4.0656851696       -1.9376979084        2.7258282207
 H          3.2231430796       -4.0907064787        1.8647725114
 H          1.2844924798       -4.1457858992        0.3460795412
 H         -0.4818519001       -3.0953275495       -0.7130172694
 C          0.3448034301       -1.5819259200       -1.9775657799
 C          1.1358878202       -2.5218574303       -2.8342336594
 C         -0.2618735997       -2.1469685204       -3.2244551697
 H         -0.4081747796       -1.4893129107       -4.0678060800
 H         -1.0397594998       -2.8884419503       -3.1105697795
 H          1.9558956103       -2.1206487306       -3.4090479295
 H          1.3049356201       -3.5206103602       -2.4617137290
 H          0.6247759202       -0.5371136200       -1.9881110202
