  62
        -98.94170177
 C         -1.1596723802       -1.6236473496        0.3451877509
 C         -1.8534100499       -0.6919568289        1.1592510804
 C         -2.9800391401        0.0101267306        0.5307291903
 C         -3.2572245706       -0.2232944805       -0.7646928694
 C         -4.3426904510        0.4563743388       -1.5470303196
 C         -3.8223947512        1.7261204082       -2.2348333508
 C         -3.0454831008        2.6578273390       -1.3046272220
 H         -2.1221357207        2.1636359093       -0.9938012519
 H         -2.7610273211        3.5345336485       -1.8896821928
 C         -3.8253376203        3.1041740301       -0.0600185320
 H         -3.6846264902        4.1782331902        0.0769284170
 H         -4.8924622104        2.9376165600       -0.2115029214
 C         -3.3863266398        2.4262339012        1.2391482184
 H         -2.3015914697        2.4968957313        1.3416027979
 H         -3.8353531094        2.9685315919        2.0754357881
 C         -3.7787486997        0.9514678913        1.3880131898
 H         -4.8474095498        0.8305126512        1.1978361303
 H         -3.5790903093        0.6576026222        2.4227225500
 H         -3.1620788016        1.4297545875       -3.0529863709
 H         -4.6740370614        2.2594178179       -2.6613142409
 H         -4.7028422013       -0.2375568818       -2.3085127988
 H         -5.1647050007        0.7031515194       -0.8777274094
 O         -2.5376927710       -1.0816242212       -1.5290669390
 C         -1.4717354008       -1.8028445507       -1.0037339288
 O         -0.9121557311       -2.5413707414       -1.8338033784
 O         -1.5462794294       -0.4606562079        2.3593963101
 C         -0.0067083399       -2.3838457391        0.9762682711
 C          1.2075553497       -2.3232782398        0.0855636605
 C          1.7418206794       -3.4319198504       -0.5574325988
 C          2.8470134191       -3.2977666011       -1.3784075494
 C          3.4515824490       -2.0673762813       -1.5568136906
 C          2.9267644893       -0.9512666707       -0.9153674814
 C          1.8088066196       -1.0853423200       -0.1086132008
 H          1.3980598398       -0.2135458296        0.3823548386
 N          3.5083688292        0.3157971491       -1.0814950227
 S          3.6722442098        1.3238558203        0.2437395864
 O          4.7658945797        2.2065805400       -0.1055557348
 O          3.8306825003        0.5734341613        1.4673653970
 C          2.1749299098        2.2832496703        0.2859985162
 C          1.7436625393        2.8811970593       -0.8817573341
 C          0.6221158794        3.6932153094       -0.8421834744
 C         -0.0400259501        3.9007070104        0.3585984557
 C          0.4029061403        3.2894492814        1.5212698161
 C          1.5208930503        2.4710480413        1.4869038663
 H          1.8930048607        1.9710574521        2.3673500866
 H         -0.1151959093        3.4437717622        2.4546903662
 H         -0.9078394901        4.5404018204        0.3883014956
 H          0.2686973290        4.1647109186       -1.7449813546
 H          2.2893402390        2.7039401885       -1.7935962042
 H          4.3350339790        0.3279245586       -1.6612782030
 H          4.3185632087       -1.9656586718       -2.1921777811
 H          3.2462640188       -4.1646181715       -1.8830004888
 H          1.2755012794       -4.3956571303       -0.4367097278
 H          0.2247401704       -1.8170610383        1.8940868305
 C         -0.3556105898       -3.7963185187        1.4213974124
 C         -1.7364321596       -4.1318734783        1.8980927133
 C         -1.2256915501       -4.7112539094        0.6147840935
 H         -0.9774300201       -5.7624421194        0.5922801243
 H         -1.6216648605       -4.3370925402       -0.3159810966
 H         -1.8410146892       -4.7822487675        2.7535209338
 H         -2.4847276796       -3.3544029183        1.8460072929
 H          0.4644827304       -4.2587750482        1.9629262224
