  62
        -98.93634907
 C          1.8314485617        0.4108284396       -0.3194354173
 C          2.9290156039        1.1280924028        0.2096122197
 C          4.2422937420        0.4591028103        0.1702225617
 C          4.3217254536       -0.7898521184       -0.3230062418
 C          5.5357391127       -1.6719845188       -0.4712521452
 C          6.5089782356       -1.7134490058        0.7169646123
 C          7.8414691226       -1.0165760178        0.4362693962
 H          8.6015800418       -1.4361931998        1.0990545900
 H          8.1426258391       -1.2432989910       -0.5886204188
 C          7.8378486465        0.4977258341        0.6383102690
 H          7.7870882247        0.7193469543        1.7065300844
 H          8.7927872299        0.8818993810        0.2719506396
 C          6.7052252736        1.2490418922       -0.0643266803
 H          6.5374936220        0.8422899237       -1.0609296033
 H          7.0226841155        2.2859972366       -0.1930967419
 C          5.3888528383        1.2585039781        0.7271669090
 H          5.5714303145        0.9421923493        1.7582004172
 H          5.0059576255        2.2817510568        0.7909464257
 H          6.0353214426       -1.2858612812        1.5992216155
 H          6.7175746309       -2.7613344527        0.9388352919
 H          5.1365342567       -2.6713036542       -0.6594151913
 H          6.0697605206       -1.3756531242       -1.3776287041
 O          3.2316448681       -1.4505607972       -0.8086254020
 C          1.9696927804       -0.8797462507       -0.8276075951
 O          1.0855583904       -1.6118279441       -1.3103329403
 H         -1.7250435244       -0.5183332156       -0.9689990893
 C         -1.5153741709       -0.4840447317        0.0861647762
 C         -0.4586630516        0.2659790198        0.5758281751
 C         -0.2045076723        0.2500320042        1.9461021251
 C         -0.9833842198       -0.5046104291        2.8003726971
 C         -2.0388798816       -1.2528726847        2.3075152752
 C         -2.3008147325       -1.2457354263        0.9430491945
 N         -3.3487553910       -2.0197148098        0.4207509185
 S         -4.4000852759       -1.4156768899       -0.7267948663
 O         -5.4736247185       -2.3837297625       -0.7738084892
 O         -3.7127336418       -1.1614406339       -1.9661167315
 C         -4.9995069420        0.1099481759       -0.0232398823
 C         -6.1015635711        0.0627366298        0.8086445684
 C         -6.5417283677        1.2320465936        1.4068660084
 C         -5.8696148765        2.4220517013        1.1716221441
 C         -4.7639754920        2.4521002019        0.3359169629
 C         -4.3209259635        1.2864465515       -0.2695036516
 H         -3.4679196726        1.2740690896       -0.9273456003
 H         -4.2428214993        3.3779862891        0.1517981728
 H         -6.2104033661        3.3322669095        1.6393565385
 H         -7.4040302424        1.2123477919        2.0536931835
 H         -6.5994089982       -0.8820593745        0.9555474238
 H         -3.8504162333       -2.5611381338        1.1093376082
 H         -2.6456832524       -1.8496573059        2.9715341615
 H         -0.7717192416       -0.5102625277        3.8589209385
 H          0.6243403423        0.8308301443        2.3269627650
 C          0.4605339497        1.0666249767       -0.3119122081
 H          0.6153406124        2.0507076039        0.1530141800
 C         -0.0535132057        1.2713342545       -1.7201826856
 C         -1.0690494113        2.3392487829       -1.9923417545
 C          0.3434413173        2.5102558578       -2.4633725006
 H          0.5500523068        2.4327166872       -3.5202758795
 H          0.9728609718        3.2195706264       -1.9460671149
 H         -1.3948676118        2.9399165504       -1.1563641762
 H         -1.8351832655        2.1451622102       -2.7285552779
 H         -0.1158462243        0.3515718573       -2.2907285697
 O          2.8194463040        2.2863482701        0.6955331255
