  62
        -98.94102305
 C         -1.7103924902        0.2066973429       -0.9430516691
 C         -2.9202035009        0.9113415437       -0.7291469361
 C         -4.1165380793        0.0831151245       -0.5079280637
 C         -4.0103597255       -1.2572071316       -0.5130741056
 C         -5.1351739161       -2.2112541990       -0.2365763978
 C         -5.2165729909       -2.5564028351        1.2571125653
 C         -5.1858017396       -1.3355073037        2.1766883725
 H         -5.2799346352       -1.6988197011        3.2023825497
 H         -4.2092658192       -0.8523542196        2.0958548823
 C         -6.2863021403       -0.3022573798        1.8979217896
 H         -6.7222536840        0.0103011411        2.8491933599
 H         -7.0839847802       -0.7593755743        1.3112341818
 C         -5.8018374273        0.9656958574        1.1923818297
 H         -6.6026362224        1.7085510132        1.2404370250
 H         -4.9420182010        1.3768268028        1.7273612744
 C         -5.4175555037        0.8017387994       -0.2834801321
 H         -6.2284886142        0.3079286544       -0.8225153887
 H         -5.2843467195        1.8025507086       -0.7044305372
 H         -6.1337944421       -3.1220373151        1.4310077566
 H         -4.3686613883       -3.1966627434        1.5110035040
 H         -4.9562080391       -3.1269140314       -0.8026323666
 H         -6.0715150929       -1.7675263294       -0.5692196184
 O         -2.8347755305       -1.9006955064       -0.7255442537
 C         -1.6662839497       -1.1920779010       -0.9381495827
 O         -0.6617932616       -1.9097790366       -1.1161409219
 O         -3.0261102182        2.1668923283       -0.7162064964
 C         -0.3733190306        0.8859517350       -1.1898767931
 C          0.2812351988        1.3320732514        0.0959054161
 C         -0.3301887848        2.2437678103        0.9498134041
 C          0.3098848061        2.6547063249        2.1044416231
 C          1.5752709448        2.1882378155        2.4154698658
 C          2.1957894422        1.2794147835        1.5669641427
 C          1.5381988633        0.8462435377        0.4243587320
 H          2.0167703343        0.1254109784       -0.2209200506
 N          3.4745148962        0.7822390960        1.8535234831
 S          4.5706211236        0.5209479305        0.6159030424
 O          5.8636129910        0.5685166152        1.2645594349
 O          4.3720928217        1.4455985082       -0.4752050251
 C          4.2558622922       -1.1475626922        0.0839946135
 C          4.2496035360       -2.1478770016        1.0355720539
 C          4.0274117007       -3.4540004226        0.6311233645
 C          3.8193134011       -3.7367530883       -0.7103994636
 C          3.8330516502       -2.7219013156       -1.6542006960
 C          4.0542164353       -1.4133334776       -1.2554404954
 H          4.0672837303       -0.5933055326       -1.9566789573
 H          3.6675234159       -2.9431961479       -2.6964752780
 H          3.6431843529       -4.7536997029       -1.0236037722
 H          4.0147426852       -4.2473195983        1.3611374797
 H          4.4183125247       -1.8898262944        2.0677694074
 H          3.9142003442        1.1802186693        2.6704739079
 H          2.0800829648        2.5238011139        3.3088454584
 H         -0.1754123073        3.3587905592        2.7636649979
 H         -1.3086322313        2.6236639352        0.6994392954
 H          0.2711873352        0.1145093933       -1.6329843417
 C         -0.4495831380        2.0529288701       -2.1575594210
 C          0.8240395392        2.5773677563       -2.7474126155
 C         -0.1486167705        1.8278585511       -3.6069354648
 H         -0.7161522246        2.3777391727       -4.3427378614
 H          0.1096590096        0.8249167583       -3.9148770044
 H          0.9219768943        3.6425712775       -2.8921007301
 H          1.7472851484        2.0918511581       -2.4650792457
 H         -1.2222133396        2.7683722872       -1.9098060511
