  62
        -98.94050599
 C         -2.7590222712       -0.0312770494       -0.1001443583
 C         -2.3428699737       -0.9168989963        0.9233409129
 C         -2.0361349542       -2.2891217329        0.4963036634
 C         -2.0643354082       -2.6133228074       -0.8076866365
 C         -1.7241575212       -3.9547732423       -1.3969862040
 C         -0.2158516171       -4.1840757903       -1.5698371540
 C          0.5543076193       -4.4811185924       -0.2820396255
 H          0.0424879448       -5.2664770179        0.2756289443
 H          1.5287771344       -4.8734107821       -0.5800124074
 C          0.7768564825       -3.2627068133        0.6247621092
 H          1.8070304537       -3.2734205330        0.9907333872
 H          0.6545372659       -2.3446529766        0.0429566973
 C         -0.1273221771       -3.2101200221        1.8565654991
 H          0.1218982857       -4.0363757770        2.5268959192
 H          0.0694027446       -2.2750989552        2.3872967902
 C         -1.6283810667       -3.2728831737        1.5526230139
 H         -1.9082478828       -4.2821342249        1.2516697489
 H         -2.1695097831       -3.0170251804        2.4673919420
 H          0.2174009381       -3.3053706216       -2.0549708098
 H         -0.0917199208       -5.0337880243       -2.2455238377
 H         -2.1480515665       -4.7486742184       -0.7810092648
 H         -2.1942321884       -3.9894506895       -2.3820807481
 O         -2.4265798018       -1.7238987074       -1.7700007061
 C         -2.7757001487       -0.4270964001       -1.4416994843
 O         -3.0915637137        0.2799833586       -2.4209624512
 H         -0.6013594389        0.8852443039        1.0486223907
 C         -0.6207954808        1.7982130337        0.4703179011
 C         -1.8220260061        2.2558841573       -0.0495739608
 C         -1.8164658225        3.4365647403       -0.7821691854
 C         -0.6361453071        4.1237431897       -1.0077510037
 C          0.5664381585        3.6354314709       -0.5275512710
 C          0.5659273879        2.4649929589        0.2159447534
 N          1.8075016478        1.9039663217        0.6323298302
 S          2.4307844485        0.9741494541       -0.6465128358
 O          2.6492099898        1.8584567124       -1.7630938156
 O          1.5816790703       -0.1720351750       -0.8940028375
 C          3.9990795731        0.4513908463        0.0204712505
 C          4.9785467446        1.4079583454        0.2075531756
 C          6.1962944055        1.0213122930        0.7433546929
 C          6.4127075290       -0.3069217009        1.0804859018
 C          5.4197330092       -1.2547109100        0.8861149297
 C          4.1981789941       -0.8740600130        0.3522482152
 H          3.3967017699       -1.5745433941        0.1788791339
 H          5.5904620394       -2.2867578309        1.1470902595
 H          7.3620508063       -0.6059891705        1.4958762731
 H          6.9718332227        1.7544782672        0.8953316397
 H          4.7671240100        2.4251345786       -0.0765550445
 H          1.6618014834        1.2680733604        1.4084177532
 H          1.5005993538        4.1280061387       -0.7407031568
 H         -0.6490549171        5.0346652804       -1.5865624016
 H         -2.7417542615        3.8000864077       -1.2041330220
 C         -3.0817461495        1.4382461324        0.1254480458
 H         -3.7728369486        1.7251830064       -0.6797616425
 C         -3.7430116773        1.7418830640        1.4545897859
 C         -4.6088053916        2.9580199427        1.5786950107
 C         -5.2274655274        1.5931083407        1.5876683592
 H         -5.6227300435        1.2065284176        2.5146244413
 H         -5.7772573456        1.2763555856        0.7131162091
 H         -4.5794724922        3.5156559404        2.5019410670
 H         -4.7474425660        3.5691185212        0.6998997846
 H         -3.1385082834        1.4632932986        2.3072376800
 O         -2.2114813734       -0.6069464288        2.1383970626
