  62
        -98.94013202
 C          2.0340922573        0.6301696706        0.9798975156
 C          2.8676910255        1.1585225636       -0.0370464827
 C          4.2645965682        0.6914855218       -0.0246374250
 C          4.6673659324       -0.1845147004        0.9122336622
 C          6.0403479388       -0.7845037132        0.9957309432
 C          6.1203132012       -2.1010219538        0.2102127232
 C          5.5595575552       -2.0092743752       -1.2090447054
 H          5.6980188936       -2.9865798207       -1.6766730694
 H          4.4832068155       -1.8293228148       -1.1561834813
 C          6.2124713742       -0.9278334857       -2.0812907800
 H          7.1685584039       -0.6305364077       -1.6488095595
 H          6.4203755924       -1.3514221718       -3.0661857263
 C          5.3483798046        0.3147297281       -2.3037441596
 H          4.3563988916        0.0130028615       -2.6490363245
 H          5.8055092975        0.9080982242       -3.1000945126
 C          5.1773404568        1.2345464239       -1.0882346266
 H          6.1561375839        1.4767197824       -0.6695190467
 H          4.7128000588        2.1613984032       -1.4372442858
 H          5.5550758806       -2.8627586537        0.7524652995
 H          7.1645022420       -2.4168230110        0.1712637459
 H          6.2654032056       -0.9838476121        2.0448788686
 H          6.7667951250       -0.0731310311        0.6076330069
 O          3.8402890257       -0.6663229515        1.8755024936
 C          2.5126696002       -0.2807739429        1.9257249019
 O          1.8633756362       -0.8027289700        2.8554815064
 O          2.4886021499        1.9735234167       -0.9154021631
 C          0.5646703924        0.9921503311        1.1224875783
 C         -0.2894374878        0.0778186853        0.2830425887
 C         -0.0362917610       -0.1014790166       -1.0733914090
 C         -0.8334772058       -0.9392346506       -1.8318073889
 C         -1.9015904100       -1.6069175343       -1.2580550777
 C         -2.1664707316       -1.4293120319        0.0928460505
 C         -1.3614919848       -0.5918502820        0.8541112361
 H         -1.5626132024       -0.4709966432        1.9101060944
 N         -3.2792685447       -2.0779348474        0.6670046564
 S         -4.7634764152       -1.6865882999       -0.0148436355
 O         -5.7478608488       -1.9954407331        0.9969508117
 O         -4.9047990325       -2.3741848893       -1.2725619129
 C         -4.6551058708        0.0733262032       -0.2801506530
 C         -4.2918749120        0.5566532994       -1.5209535768
 C         -4.0996797452        1.9200761465       -1.6774493191
 C         -4.2731872406        2.7716333187       -0.5979133491
 C         -4.6493463268        2.2715758959        0.6394972131
 C         -4.8354382358        0.9087665822        0.8045604839
 H         -5.1276613764        0.4812748050        1.7506477506
 H         -4.7878691850        2.9379413950        1.4757786827
 H         -4.1107085851        3.8304988827       -0.7196538624
 H         -3.8079299006        2.3123461947       -2.6383077835
 H         -4.1700850396       -0.1371940720       -2.3360803919
 H         -3.3248856331       -1.9774164648        1.6712417514
 H         -2.5383188325       -2.2577929959       -1.8353857057
 H         -0.6229945415       -1.0727935706       -2.8821572038
 H          0.7871334989        0.4300462369       -1.5253514965
 H          0.3248687771        0.7903907066        2.1783486964
 C          0.2781401581        2.4667775177        0.8668456929
 C         -0.5671230558        2.9646122816       -0.2635937731
 C         -1.0944291488        3.0091423675        1.1365834481
 H         -1.1858295261        3.9641910778        1.6307071217
 H         -1.8637706663        2.2980525396        1.3988606825
 H         -0.2674787020        3.8863228156       -0.7378301367
 H         -0.9932125493        2.2432378381       -0.9427518199
 H          1.1138647556        3.0960295906        1.1533809541
