  62
        -98.94055935
 C          2.3176842880        1.0612775319       -0.1280762744
 C          1.9450642838       -0.2537848198       -0.4984184172
 C          2.6476910423       -1.3420168446        0.1987189937
 C          3.5587190459       -1.0487002906        1.1433141277
 C          4.3786797319       -2.0579119393        1.8922115399
 C          5.7033911581       -2.3445100200        1.1709790303
 C          5.5431968537       -2.6481547732       -0.3186397190
 H          5.1821030573       -1.7516931502       -0.8277274268
 H          6.5376135660       -2.8644568794       -0.7148150231
 C          4.6022922176       -3.8203107009       -0.6299230156
 H          5.0717519023       -4.4557551205       -1.3837366230
 H          4.4600693898       -4.4287758544        0.2638912083
 C          3.2373517412       -3.4070140991       -1.1830181604
 H          3.3749572717       -2.7220400346       -2.0232872053
 H          2.7411295550       -4.3021591806       -1.5671799042
 C          2.2822619295       -2.7507050112       -0.1779714008
 H          1.2957980668       -2.6883475041       -0.6466694882
 H          2.1970128067       -3.3757825979        0.7133717788
 H          6.1898618144       -3.1867717236        1.6662738287
 H          6.3494441629       -1.4697244193        1.2747230979
 H          4.5937526022       -1.6566063055        2.8840533414
 H          3.8046150085       -2.9762002057        2.0005400141
 O          3.8728117032        0.2245059092        1.4924069642
 C          3.2658595763        1.3012849574        0.8720726934
 O          3.6524231393        2.4121044159        1.2872118349
 H         -0.6100382351        0.9472444433       -1.2710818677
 C         -0.7563377907        1.6986165753       -0.5101402593
 C          0.3128546448        2.4954029125       -0.1276024170
 C          0.1168186417        3.4275402275        0.8854194146
 C         -1.1172114135        3.5526939791        1.4991053848
 C         -2.1781480235        2.7480161727        1.1224100963
 C         -1.9883878068        1.8096084215        0.1170248880
 N         -3.0540726457        0.9614249826       -0.2650045935
 S         -3.6690567996        0.0097372371        0.9925803958
 O         -4.5112202994        0.8395552661        1.8173259160
 O         -2.5922740510       -0.6730453035        1.6778846031
 C         -4.6651047924       -1.1545203842        0.0830720178
 C         -5.9910668413       -0.8579726855       -0.1666328598
 C         -6.7489458752       -1.7527797303       -0.9053876893
 C         -6.1709790741       -2.9203345146       -1.3808197186
 C         -4.8383585413       -3.2042657215       -1.1216887241
 C         -4.0746594472       -2.3135177290       -0.3840395477
 H         -3.0371443641       -2.4982857774       -0.1524221909
 H         -4.3910286727       -4.1132104856       -1.4908528171
 H         -6.7622546288       -3.6155757911       -1.9555222711
 H         -7.7856465016       -1.5373098559       -1.1076327168
 H         -6.3972775351        0.0580442143        0.2289970390
 H         -2.7586801895        0.3471810073       -1.0146747121
 H         -3.1367549434        2.8159339995        1.6107223614
 H         -1.2532769772        4.2794025732        2.2860838412
 H          0.9494006549        4.0376758616        1.2062282002
 C          1.6811640633        2.3037192746       -0.7371323059
 H          2.3101922700        3.1451531554       -0.4182255043
 C          1.6506758466        2.2737661467       -2.2518046127
 C          1.4332202398        3.5552874209       -2.9966421492
 C          2.7784192115        2.8952439184       -3.0172043235
 H          3.1068675917        2.4180512885       -3.9283622341
 H          3.5783491503        3.3482961948       -2.4495533838
 H          0.8358930841        3.5341820782       -3.8950743722
 H          1.3202736298        4.4570243222       -2.4138885199
 H          1.2160506141        1.3718123400       -2.6610440108
 O          1.0772853264       -0.5332667479       -1.3687632161
