  62
        -98.93948575
 C         -2.6375291997       -1.2147844998        0.2454138193
 C         -2.5283837098       -0.1645713495       -0.6995695404
 C         -3.7259186999        0.6768748405       -0.8615456100
 C         -4.8266578198        0.4146096002       -0.1353603500
 C         -6.0906707299        1.2228711401       -0.1657610997
 C         -6.0657445299        2.3306169498        0.8967205207
 C         -4.7839884899        3.1638634399        0.8900999008
 H         -4.8926249499        3.9325677096        1.6582960111
 H         -3.9444268899        2.5305862998        1.1863628306
 C         -4.4651212901        3.8282534203       -0.4564829990
 H         -5.3611823801        3.8547006904       -1.0776788289
 H         -4.1667216201        4.8627470303       -0.2739879787
 C         -3.3267656601        3.1677772906       -1.2365979193
 H         -2.4543152000        3.0540819805       -0.5880476994
 H         -3.0422692002        3.8365269409       -2.0532783391
 C         -3.6461878100        1.8012100108       -1.8556121597
 H         -4.5668681601        1.8667264409       -2.4390497396
 H         -2.8263022001        1.5449144810       -2.5330181198
 H         -6.9267179999        2.9821136598        0.7362963009
 H         -6.1684273698        1.8681362295        1.8812032505
 H         -6.2150841000        1.6568851904       -1.1558989495
 H         -6.9304953798        0.5561203500        0.0372044502
 O         -4.8939731697       -0.6020776501        0.7620868797
 C         -3.8016429896       -1.4217365201        0.9906251394
 O         -3.9867972495       -2.2850802604        1.8716871191
 H          0.8225302203       -2.1173311392       -0.9884805112
 C          0.8757335703       -1.4532390394       -0.1397197710
 C         -0.2060205196       -1.3422423098        0.7182492091
 C         -0.1160332296       -0.4574879901        1.7896329094
 C          1.0217456704        0.3001394899        1.9882852195
 C          2.0968078003        0.1925118203        1.1232878694
 C          2.0194683703       -0.6883368494        0.0541175291
 N          3.1005655502       -0.7907914591       -0.8356977410
 S          4.6485382103       -0.9660768291       -0.2200060812
 O          5.3998799002       -1.6235606288       -1.2672403914
 O          4.6348823904       -1.6220979795        1.0671715786
 C          5.2392256802        0.7048944908       -0.0485578707
 C          5.7338180102        1.1399719905        1.1652251794
 C          6.2031245302        2.4401611505        1.2706870498
 C          6.1711845200        3.2770332908        0.1658566400
 C          5.6727342500        2.8241553312       -1.0467200001
 C          5.2026339900        1.5255313512       -1.1587950804
 H          4.8104463000        1.1356706014       -2.0832845305
 H          5.6488967698        3.4780567214       -1.9036166799
 H          6.5367867700        4.2882980408        0.2500015203
 H          6.5908229502        2.7942609303        2.2124123498
 H          5.7353540304        0.4554471803        1.9986849992
 H          2.9376206102       -1.4135660788       -1.6130367712
 H          2.9867668103        0.7827233803        1.2692266095
 H          1.0729442104        0.9843243097        2.8218943597
 H         -0.9583328696       -0.3687359603        2.4631468795
 C         -1.4735712596       -2.1432954898        0.5492868690
 H         -1.7170090295       -2.5900115101        1.5276581789
 C         -1.3281715196       -3.3029507695       -0.4249993314
 C         -2.5315338696       -3.9101530394       -1.0805667115
 C         -1.5344110397       -3.1515274691       -1.9011936813
 H         -0.8920143697       -3.7097506588       -2.5672939315
 H         -1.8054410798       -2.1760094290       -2.2721270510
 H         -3.4904727496       -3.4524521295       -0.8854206413
 H         -2.5736196395       -4.9843032194       -1.1811135218
 H         -0.5535370895       -3.9964711895       -0.1097768317
 O         -1.4976132199        0.0696076208       -1.3807086004
