  62
        -98.93489340
 C         -1.2132103109       -1.1930163900        0.2148003297
 C         -1.8621362607       -0.2498576095        1.0471295393
 C         -3.1057321105        0.3548462006        0.5340001089
 C         -3.5247188205        0.0269497703       -0.7010202810
 C         -4.7509248003        0.5009653103       -1.4390147813
 C         -6.0611966403        0.5287471510       -0.6366482114
 C         -6.5597851699        1.9434801913       -0.3392557120
 H         -6.3926098497        2.5637709109       -1.2222857122
 H         -7.6376457100        1.9056626617       -0.1665409820
 C         -5.9206914198        2.6122149616        0.8765666578
 H         -6.2520581395        3.6531492917        0.8931676474
 H         -6.2940966700        2.1380228021        1.7868497980
 C         -4.3908066498        2.5860438312        0.9139923180
 H         -4.0598902897        3.4052699013        1.5563324877
 H         -3.9775412797        2.7766702107       -0.0760458021
 C         -3.8087208203        1.2846870112        1.4854553885
 H         -3.0540011703        1.5243053113        2.2412825085
 H         -4.5909033405        0.7260035717        2.0087895687
 H         -5.9400656306       -0.0316666986        0.2892792489
 H         -6.8245950404        0.0185795310       -1.2261808612
 H         -4.8494930304       -0.1768391600       -2.2900366610
 H         -4.5462145799        1.4914612001       -1.8528124916
 O         -2.8203904906       -0.8205240602       -1.5032124606
 C         -1.6561247409       -1.4458189804       -1.0831031402
 O         -1.1383237610       -2.1782233009       -1.9458536399
 O         -1.4194272207        0.0759555608        2.1822955892
 C          0.0532150589       -1.8457451902        0.7365859801
 C          1.1548943490       -1.7337386309       -0.2863041699
 C          1.8606758487       -2.8157343313       -0.7949637794
 C          2.8667864588       -2.6177832220       -1.7246606394
 C          3.2103343793       -1.3451281122       -2.1421330399
 C          2.5094977895       -0.2554212718       -1.6383515404
 C          1.4879286494       -0.4589537812       -0.7260244004
 H          0.9272953996        0.3916477391       -0.3667630608
 N          2.8326912699        1.0583290379       -2.0172474409
 S          2.8237805802        2.2405121684       -0.8331278913
 O          1.4759577403        2.6785640789       -0.5687832816
 O          3.7281569605        3.2564055479       -1.3292285717
 C          3.5267908798        1.4420401587        0.5998322890
 C          4.8536638297        1.0628354583        0.5306559793
 C          5.4157426295        0.3847424186        1.5992796296
 C          4.6431088393        0.0929198492        2.7132615897
 C          3.3154912894        0.4864637897        2.7709334394
 C          2.7481279297        1.1678335994        1.7052009891
 H          1.7159505498        1.4819832197        1.7185991989
 H          2.7111348093        0.2615993702        3.6354452094
 H          5.0771359091       -0.4425152606        3.5427984599
 H          6.4495324894        0.0818890783        1.5591390298
 H          5.4242613099        1.3147068278       -0.3484257808
 H          3.6391611900        1.1376957974       -2.6192525208
 H          4.0012506994       -1.1931842328       -2.8605332699
 H          3.3978155086       -3.4682442823       -2.1242556690
 H          1.6065274184       -3.8156858811       -0.4850194291
 H          0.3414172590       -1.2214371699        1.5996793998
 C         -0.1406076816       -3.2562775899        1.2719483706
 C         -1.4696155117       -3.7063363393        1.7987963407
 C         -0.9266926418       -4.2961902900        0.5334550409
 H         -0.5736367921       -5.3168557301        0.5566435914
 H         -1.3756330717       -4.0103676502       -0.4045321692
 H         -1.4889732420       -4.3187152890        2.6878155509
 H         -2.2968202115       -3.0148798691        1.7263152903
 H          0.7312551383       -3.6032439500        1.8177701508
