  62
        -98.93969349
 C         -2.3333004088       -1.0432547745        0.1884324922
 C         -2.5957592922        0.1768188165       -0.4820871068
 C         -3.6476201472        1.0207553018        0.1098635386
 C         -4.2506686470        0.6343786894        1.2477738169
 C         -5.3678353493        1.3731284974        1.9243817467
 C         -6.7358532519        0.8837732977        1.4283822328
 C         -6.8539027403        0.8174288240       -0.0943575925
 H         -6.1739227423        0.0501226904       -0.4717547018
 H         -7.8691022733        0.4892907378       -0.3277249902
 C         -6.5681898878        2.1439824553       -0.8121129293
 H         -7.3321914010        2.3000285855       -1.5766626609
 H         -6.6435027799        2.9712248974       -0.1054942467
 C         -5.2129505417        2.2045459103       -1.5193447951
 H         -5.2060746489        3.0858662146       -2.1663802871
 H         -5.0947557728        1.3278615888       -2.1614862497
 C         -3.9858031954        2.2997488879       -0.6038750852
 H         -3.1205064109        2.5315784562       -1.2321702671
 H         -4.1205101732        3.1159618974        0.1087444346
 H         -7.5050193704        1.5483164067        1.8258799617
 H         -6.9110681828       -0.1174057998        1.8287233681
 H         -5.2605164208        2.4392224496        1.7342209084
 H         -5.2959934995        1.1952206507        2.9985895110
 O         -3.9362924002       -0.5176143678        1.8923981360
 C         -2.9934200160       -1.3864306917        1.3730598342
 O         -2.8304746898       -2.4235416419        2.0456160202
 O         -1.9954276759        0.5647130088       -1.5191194322
 C         -1.3322035441       -2.0726460770       -0.3123207448
 C          0.0686839650       -1.7589775965        0.1451815132
 C          0.8574067916       -2.7275841827        0.7539372594
 C          2.1550554653       -2.4388029322        1.1396314443
 C          2.6915274009       -1.1819177298        0.9245967817
 C          1.9099348952       -0.2060995025        0.3201949459
 C          0.6093254162       -0.4972423862       -0.0618728208
 H          0.0114389842        0.2607396852       -0.5469147362
 N          2.4538496542        1.0759651137        0.0912587965
 S          3.7663526304        1.1219280349       -0.9643093251
 O          3.7810884899        2.4628863836       -1.5062083453
 O          3.7050852418        0.0405276412       -1.9211023493
 C          5.1770514265        0.9119202692        0.1012275196
 C          5.3973920891        1.8580169268        1.0832055875
 C          6.4945926131        1.7132516350        1.9170928585
 C          7.3491500729        0.6328162583        1.7539237750
 C          7.1158515704       -0.3064248276        0.7610392096
 C          6.0193334974       -0.1681543836       -0.0758936404
 H          5.7947095836       -0.8748195545       -0.8586785736
 H          7.7817174904       -1.1450376442        0.6354649265
 H          8.2026733322        0.5227602370        2.4041159477
 H          6.6798390417        2.4417714642        2.6899463936
 H          4.7116697711        2.6842020625        1.1713503768
 H          1.7576706095        1.7406986596       -0.2184391262
 H          3.7015699619       -0.9509255419        1.2216671174
 H          2.7556725598       -3.2008531931        1.6120314880
 H          0.4433248763       -3.7096290569        0.9304497431
 H         -1.6320967699       -3.0174873180        0.1675293432
 C         -1.4198220567       -2.2854074126       -1.8195698446
 C         -0.3430823522       -1.9003082575       -2.7853854878
 C         -0.5874608530       -3.3454342452       -2.4780478395
 H         -1.0427116357       -3.9685787908       -3.2327722367
 H          0.1441364446       -3.8519601356       -1.8666944140
 H         -0.6506521415       -1.5113837973       -3.7445317834
 H          0.5581978685       -1.4416070810       -2.4075583136
 H         -2.4383540215       -2.1794247136       -2.1801827517
