  62
        -98.94100297
 C         -2.0171326103       -0.9008726195       -0.1816975198
 C         -2.3095094299       -0.1099097395        0.9590976503
 C         -2.4004235994        1.3389890306        0.7521122204
 C         -2.1684778894        1.8377987306       -0.4752191395
 C         -2.2400822089        3.2922084207       -0.8397483194
 C         -3.6470584888        3.6835858012       -1.3127013192
 C         -4.7627398889        3.2165862215       -0.3778784292
 H         -5.7070347788        3.5725083619       -0.7951463591
 H         -4.7973558892        2.1248756015       -0.3854417593
 C         -4.6244599586        3.7082392313        1.0696468709
 H         -5.5972857584        4.0666103216        1.4124181110
 H         -3.9346303283        4.5518144410        1.1096849609
 C         -4.1698463089        2.6363206510        2.0619171207
 H         -4.8010338392        1.7503005913        1.9588291107
 H         -4.3137854187        3.0257309810        3.0732012908
 C         -2.7042617491        2.1977164605        1.9475358505
 H         -2.0525318488        3.0741692103        1.9627794306
 H         -2.4692700092        1.5828861904        2.8214270905
 H         -3.6860577384        4.7694254412       -1.4168382691
 H         -3.8154935890        3.2404602514       -2.2968947093
 H         -1.9544618286        3.8883730005        0.0251014107
 H         -1.5263181289        3.4755684705       -1.6451943694
 O         -1.8842061097        1.0563563606       -1.5457089596
 C         -1.7796891902       -0.3246497394       -1.4303815698
 O         -1.4887094404       -0.8874423594       -2.5044771299
 H          0.4587880196       -1.1671351203       -0.7674637700
 C          0.6412649194       -1.9412057804       -0.0371683101
 C         -0.4105034009       -2.6819940901        0.4778530399
 C         -0.1269016311       -3.6859985703        1.3976970197
 C          1.1739645588       -3.9239591708        1.8025963896
 C          2.2136622290       -3.1452262011        1.3262973996
 C          1.9409434193       -2.1441024609        0.4018526697
 N          2.9572114696       -1.3174859212       -0.1035505902
 S          2.5705286001        0.3104369690       -0.3610189600
 O          1.6679355404        0.7763059992        0.6675161701
 O          2.1380967901        0.4766504293       -1.7261390100
 C          4.1764851604        1.0598184384       -0.1517772301
 C          4.5186562407        1.5837410581        1.0805997400
 C          5.7797393209        2.1340462377        1.2486489599
 C          6.6734863008        2.1478507975        0.1882998599
 C          6.3155256105        1.6188358577       -1.0429716502
 C          5.0557658603        1.0681819782       -1.2182064901
 H          4.7278761401        0.6542123484       -2.1575776401
 H          7.0114283605        1.6341522076       -1.8660683602
 H          7.6540597510        2.5765984371        0.3215407099
 H          6.0586071411        2.5493444975        2.2036155400
 H          3.7863121807        1.5578281383        1.8716820900
 H          3.8348567996       -1.4221354016        0.3875592997
 H          3.2249241590       -3.3065366515        1.6671333695
 H          1.3786109886       -4.7062137909        2.5174551795
 H         -0.9364817613       -4.2685392501        1.8103113897
 C         -1.8376585008       -2.3866169296        0.0686469500
 H         -2.4768724508       -2.6189718894        0.9330694600
 C         -2.2505764212       -3.2796534293       -1.0841549101
 C         -2.7746788716       -4.6557482591       -0.8064931302
 C         -3.7021784513       -3.5851923888       -1.2953075400
 H         -4.0724655714       -3.6354623885       -2.3078131200
 H         -4.4061831311       -3.1610487786       -0.5940755999
 H         -2.8640833917       -4.9642158292        0.2237240398
 H         -2.5057336120       -5.4516828992       -1.4834355203
 H         -1.6414444812       -3.1405798794       -1.9680618701
 O         -2.4899436200       -0.6045979296        2.1060658202
