  62
        -98.93787518
 C         -1.9363087684       -1.3729925170        0.1098738592
 C         -2.2416954301       -0.3740923445       -0.8443693107
 C         -3.6228573917        0.1421629083       -0.8342350113
 C         -4.5105711304       -0.3400481658        0.0509380159
 C         -5.9687183277        0.0104016482        0.2095389286
 C         -6.3560964341        1.4936345851        0.1303141226
 C         -5.3001789633        2.4712913010        0.6665104212
 H         -5.7758869374        3.1550356893        1.3721083708
 H         -4.5274532106        1.9270677020        1.2125282779
 C         -4.6501848478        3.3124633438       -0.4348632101
 H         -5.4276354745        3.6468892978       -1.1253382174
 H         -4.2103121263        4.2043523231        0.0182156728
 C         -3.5444119102        2.6154227907       -1.2264447117
 H         -2.6656409003        2.4789398060       -0.5897267292
 H         -3.2475260595        3.2778853639       -2.0433517431
 C         -3.9156751947        1.2432770031       -1.8128778323
 H         -4.9514535532        1.2235298014       -2.1423559545
 H         -3.2717389148        1.0612269782       -2.6774180385
 H         -6.5900154657        1.7555030241       -0.9007219155
 H         -7.2798835990        1.6084208586        0.6998476702
 H         -6.5354463049       -0.5473545896       -0.5417700436
 H         -6.2507666434       -0.3893817306        1.1865517091
 O         -4.1763692744       -1.3029428942        0.9548873569
 C         -2.9019697199       -1.8333425519        1.0109764905
 O         -2.7516206104       -2.7039060474        1.8913023319
 O         -1.4229569932        0.0810390384       -1.6882847845
 C         -0.5680710853       -2.0255729447        0.2386471723
 C          0.4107024883       -1.1330797339        0.9634107881
 C          0.9668483355       -1.5195304990        2.1769515851
 C          1.8903037352       -0.7127604696        2.8196840877
 C          2.2779724050        0.4938616128        2.2653899582
 C          1.7209239372        0.8911946657        1.0569505875
 C          0.8015163257        0.0786722713        0.4113205781
 H          0.3698237906        0.3952986863       -0.5265921201
 N          2.1245576057        2.1116729237        0.4733661878
 S          3.7630190897        2.2114326876        0.1271502757
 O          4.4864586281        2.5020315713        1.3396119184
 O          3.8834148220        3.1871694169       -0.9326461835
 C          4.1852449508        0.5804369496       -0.4584990124
 C          4.8806253962       -0.2849855001        0.3608589466
 C          5.1249751876       -1.5747414429       -0.0826437040
 C          4.6674421975       -1.9754222772       -1.3280391801
 C          3.9712601645       -1.0931823502       -2.1400143017
 C          3.7224425404        0.1967265426       -1.7014340874
 H          3.1862773111        0.9099032507       -2.3073696343
 H          3.6165629926       -1.4052815500       -3.1094349148
 H          4.8548099964       -2.9816037186       -1.6687509108
 H          5.6657352353       -2.2636860235        0.5458389475
 H          5.2180149934        0.0676000412        1.3215329883
 H          1.5861502039        2.3429833350       -0.3501382811
 H          3.0022825366        1.1324088403        2.7450347513
 H          2.3134192777       -1.0271412507        3.7614865409
 H          0.6625790023       -2.4562430979        2.6208733844
 H         -0.7280778507       -2.9178982975        0.8579659641
 C          0.0077407425       -2.4647572398       -1.0951072782
 C          1.0768370926       -3.5134308024       -1.1119109587
 C         -0.2990340214       -3.8368935086       -1.6107236497
 H         -0.4493801451       -3.9663233123       -2.6720309798
 H         -0.9283346365       -4.4702861515       -1.0021307667
 H          1.8759651654       -3.4197698804       -1.8302163285
 H          1.3832011767       -3.9297566401       -0.1644733668
 H          0.0733045985       -1.6646072463       -1.8198985154
