  62
        -98.94110729
 C         -2.0062614792       -1.2157930584        0.1024427658
 C         -2.7966249967       -0.6673632082        1.1444016529
 C         -3.9883663298        0.0854108078        0.7322561175
 C         -4.2455309389        0.2388844065       -0.5792481616
 C         -5.3972775530        1.0191850264       -1.1421726320
 C         -5.0072815971        2.4818716573       -1.3962995595
 C         -4.3146052004        3.1512280085       -0.2091907740
 H         -3.3467704443        2.6713439381       -0.0449345327
 H         -4.1138315451        4.1871203241       -0.4914282059
 C         -5.1227672098        3.1237531106        1.0958401148
 H         -5.0757399081        4.1125655553        1.5570416012
 H         -6.1712873455        2.9182307121        0.8775233340
 C         -4.6162803048        2.1226468452        2.1359552704
 H         -5.1126007351        2.3395915168        3.0855609667
 H         -3.5433605231        2.2649698613        2.2888248797
 C         -4.8663351271        0.6431008360        1.8172121089
 H         -5.9203785163        0.4926115295        1.5751050884
 H         -4.6343310730        0.0666650853        2.7176065721
 H         -5.9088703465        3.0398470070       -1.6554568070
 H         -4.3286680697        2.5159966542       -2.2518924219
 H         -5.6923953426        0.5621297493       -2.0882177362
 H         -6.2352375614        0.9705230764       -0.4493658214
 O         -3.4446612970       -0.2640349595       -1.5510443180
 C         -2.2981121006       -0.9891471349       -1.2439381494
 O         -1.6546796600       -1.3558751519       -2.2432163157
 O         -2.5139647915       -0.7976864797        2.3658468361
 C         -0.7690432860       -2.0012156360        0.5007316157
 C          0.4286293776       -1.5080038645       -0.2712835837
 C          1.1854292625       -2.3060813747       -1.1177064410
 C          2.2628751987       -1.7733261889       -1.8048204168
 C          2.6132285554       -0.4444392947       -1.6586451668
 C          1.8698391306        0.3604591602       -0.8038837090
 C          0.7950652337       -0.1762744718       -0.1128354288
 H          0.2115849969        0.4541986547        0.5474674147
 N          2.2234574329        1.7098046789       -0.6385380153
 S          3.8427838154        2.0909870203       -0.4660764834
 O          3.8599575430        3.3249356997        0.2881912984
 O          4.4742330727        2.1374921988       -1.7612087989
 C          4.5375537331        0.7595507333        0.4973500134
 C          5.5364675694       -0.0298647306       -0.0344785979
 C          6.0380388187       -1.0766839611        0.7225712223
 C          5.5312162559       -1.3169553038        1.9900031330
 C          4.5295809982       -0.5125308454        2.5120561636
 C          4.0261952931        0.5365741698        1.7606080135
 H          3.2517139807        1.1838488476        2.1403011073
 H          4.1366318767       -0.7002633009        3.4984428306
 H          5.9186794679       -2.1347905835        2.5766889903
 H          6.8183265568       -1.7023086461        0.3202732839
 H          5.8996911161        0.1906341296       -1.0249821135
 H          1.6530899569        2.2091336029        0.0270316062
 H          3.4356307864       -0.0115751468       -2.2046545258
 H          2.8337871727       -2.4014799140       -2.4713289629
 H          0.9148454978       -3.3385646356       -1.2630506799
 H         -0.6157102718       -1.7396735257        1.5614083032
 C         -0.9405807457       -3.5118652968        0.4550475661
 C         -2.2849607118       -4.1414335503        0.6614175077
 C         -1.6206443410       -4.2161266772       -0.6790465538
 H         -1.2246454550       -5.1685700480       -1.0001974731
 H         -2.0092598705       -3.6125382715       -1.4837554282
 H         -2.3458700121       -5.0388216540        1.2586609141
 H         -3.1344671760       -3.4833846395        0.7746426557
 H         -0.0984177875       -4.0252871100        0.9087606647
