  62
        -98.93880723
 C          1.7517016017        0.5904773230        0.9139899127
 C          2.1476888217       -0.1672974019       -0.2169713599
 C          2.0204765353       -1.6286542031       -0.0962556205
 C          1.4884180137       -2.1556797079        1.0194891349
 C          1.1435943597       -3.6036201738        1.2211972140
 C         -0.1600275575       -3.9288018002        0.4620862366
 C          0.0095011838       -4.9333159798       -0.6767432925
 H          0.1401833949       -5.9336753491       -0.2574946114
 H         -0.9205824079       -4.9305562122       -1.2496705565
 C          1.1795561854       -4.6606700468       -1.6270253347
 H          1.0088095444       -5.2604462400       -2.5236948494
 H          2.1070458432       -5.0241251743       -1.1806782663
 C          1.3774312977       -3.1973084841       -2.0449831771
 H          1.6651827661       -3.1809613043       -3.0987800067
 H          0.4452830513       -2.6359529892       -1.9631737076
 C          2.4793691928       -2.4543774231       -1.2650567918
 H          3.2411643091       -3.1669761971       -0.9349235008
 H          2.9604571116       -1.7419310076       -1.9417860781
 H         -0.5661972699       -2.9998818001        0.0536759933
 H         -0.9030780564       -4.3210180505        1.1591443837
 H          1.9589271594       -4.2314014238        0.8685936048
 H          1.0130658598       -3.7664392742        2.2915244271
 O          1.1008220137       -1.3983204734        2.0786928093
 C          1.2033307712       -0.0156814154        2.0450513447
 O          0.7677410728        0.5508268621        3.0676723475
 H         -0.6784602372        1.2374627110        0.1939794291
 C         -0.2955640446        1.8998996973       -0.5688420106
 C          0.9453301890        2.4971913033       -0.3804201507
 C          1.4243829361        3.3568063293       -1.3577255023
 C          0.6864735505        3.5773399391       -2.5091008711
 C         -0.5185534230        2.9326404397       -2.7190244723
 C         -1.0103881415        2.0761941235       -1.7392288575
 N         -2.2262157784        1.3963338656       -1.9026963011
 S         -2.4446974491       -0.1173696657       -1.2225993282
 O         -1.2325247831       -0.9008657888       -1.2035922841
 O         -3.5479944438       -0.6823483267       -1.9728148560
 C         -2.9999934393        0.2291983971        0.4319669960
 C         -4.0458050157        1.1162628111        0.5958002639
 C         -4.4966493748        1.3895082906        1.8767557237
 C         -3.8980279329        0.7748136897        2.9667220182
 C         -2.8532468786       -0.1178211337        2.7858535784
 C         -2.4009534007       -0.3966701378        1.5060975112
 H         -1.5801478301       -1.0754641612        1.3311501800
 H         -2.3741096462       -0.5885669409        3.6294012569
 H         -4.2445680668        0.9921913104        3.9647073729
 H         -5.3092707586        2.0826380790        2.0232719546
 H         -4.4832219340        1.5729282049       -0.2762123103
 H         -2.6401709418        1.4667933544       -2.8204458762
 H         -1.0705153879        3.0784867948       -3.6350990597
 H          1.0703735507        4.2418739190       -3.2684294611
 H          2.3862096073        3.8273020226       -1.2359182824
 C          1.6920291652        2.1111913077        0.8734624044
 H          1.0629825332        2.3867023863        1.7365785647
 C          3.0156043799        2.8332241792        1.0612324635
 C          4.1437756116        2.1858673778        1.8066613569
 C          4.2672473861        2.4437008083        0.3364526129
 H          4.9327021087        3.2304803963        0.0114209207
 H          4.2109169819        1.6085192544       -0.3424520749
 H          4.7232686405        2.7893378818        2.4892236103
 H          4.0015057794        1.1662369716        2.1352282990
 H          2.8709972834        3.8943485175        1.2410591717
 O          2.5844294349        0.3384010706       -1.2830287065
