  62
        -98.93287856
 C          1.9210720433        0.9450675543        0.1714747955
 C          2.3282996973       -0.0747786545        1.0649517378
 C          2.6108720003       -1.3958631026        0.4824695234
 C          2.4207753531       -1.5857696037       -0.8339758826
 C          2.5870465349       -2.8527231286       -1.6358493702
 C          3.8084396237       -3.7310719415       -1.3332435263
 C          5.0712224802       -2.9633113273       -0.9154961628
 H          5.9086893072       -3.2961914424       -1.5311851483
 H          4.9359481171       -1.8958923274       -1.0979389702
 C          5.4485758857       -3.1865134521        0.5508945335
 H          6.5039211355       -2.9372513700        0.6841434160
 H          5.3300548470       -4.2464776402        0.7853995029
 C          4.6577794291       -2.3601285603        1.5644466075
 H          4.9390375606       -2.6949646759        2.5657189487
 H          4.9419278129       -1.3069457035        1.4880473129
 C          3.1278588507       -2.4381227719        1.4321466253
 H          2.8049148314       -3.4366299982        1.1468741392
 H          2.6910358148       -2.1985000184        2.4058708363
 H          4.0137881992       -4.3057188852       -2.2379653878
 H          3.5558343864       -4.4502501887       -0.5554393809
 H          1.6752463093       -3.4455183268       -1.5146354301
 H          2.6196422141       -2.5254930149       -2.6780343693
 O          1.9876735218       -0.5883924193       -1.6540200526
 C          1.7095117485        0.6854372434       -1.1825758580
 O          1.3008345227        1.4676835922       -2.0614327092
 H         -0.6085301424        0.8052351288        0.7253211400
 C         -0.8175326282        1.7940709066        0.3409869048
 C          0.2082743788        2.7306734409        0.2754019584
 C         -0.0833488462        3.9986869080       -0.2067455002
 C         -1.3687859092        4.3100877306       -0.6187978446
 C         -2.3785080933        3.3687573451       -0.5747917812
 C         -2.0927590130        2.0894853145       -0.1045491344
 N         -3.0847969801        1.0952778778       -0.1182860995
 S         -2.8318851268       -0.4310057506        0.5229014774
 O         -2.6399874116       -0.3669853276        1.9571709340
 O         -1.7993287356       -1.0949470832       -0.2339318188
 C         -4.4139850320       -1.1671574390        0.1584021751
 C         -5.3432057603       -1.3408081147        1.1660645254
 C         -6.5755086521       -1.8940831580        0.8538712562
 C         -6.8567969852       -2.2594376713       -0.4537260321
 C         -5.9132670275       -2.0802504943       -1.4548778896
 C         -4.6793295816       -1.5292017044       -1.1490157851
 H         -3.9109042927       -1.3785278026       -1.8897870055
 H         -6.1338182007       -2.3676519889       -2.4702637042
 H         -7.8162246302       -2.6891398141       -0.6946376269
 H         -7.3093842780       -2.0375541535        1.6303874758
 H         -5.0763495482       -1.0472943905        2.1685070485
 H         -4.0251738176        1.4370044168        0.0132941281
 H         -3.3745256364        3.6083901563       -0.9128638795
 H         -1.5831395108        5.3010548573       -0.9894219442
 H          0.6951116050        4.7404404529       -0.2761371076
 C          1.5720304181        2.3005963896        0.7582659140
 H          1.4926432806        2.1095919268        1.8432616881
 C          2.6464784557        3.3642470237        0.5848838270
 C          4.0665333158        2.9914666061        0.2831240395
 C          3.2387208239        3.6871383303       -0.7531458896
 H          3.4643215800        4.7192946221       -0.9781174593
 H          2.8877343203        3.1180203510       -1.5993141179
 H          4.2882915982        1.9436094078        0.1392167510
 H          4.8562431946        3.5423398071        0.7718454953
 H          2.5096529434        4.1958983043        1.2693598351
 O          2.4384455444        0.1080847939        2.3087816256
