  62
        -98.94490073
 C          2.2585444890        1.3164017373        0.1554314998
 C          2.1095876380        0.4789953968       -0.9765012730
 C          2.9458675180       -0.7309785576       -0.9931843366
 C          3.7772865544       -0.9797458634        0.0343736959
 C          4.6120466297       -2.2177209146        0.1830354240
 C          3.8477454923       -3.3070578092        0.9497249019
 C          2.4293006978       -3.5491238022        0.4326809352
 H          1.9985925630       -4.3512309579        1.0358100843
 H          1.8306847076       -2.6525233329        0.6105611838
 C          2.3517185398       -3.9292191713       -1.0530968882
 H          3.3292965711       -4.2668845815       -1.3991573880
 H          1.6624124063       -4.7689876411       -1.1666113558
 C          1.8511029915       -2.8136127910       -1.9727290642
 H          1.6447445016       -3.2491999170       -2.9541838776
 H          0.9102084053       -2.4103492297       -1.5902814201
 C          2.8166739189       -1.6411342152       -2.1825077035
 H          3.7947272067       -2.0172452970       -2.4885618514
 H          2.4175867731       -1.0238605440       -2.9927860003
 H          3.7820134331       -3.0092334974        1.9986681384
 H          4.4210938501       -4.2341712701        0.8950012350
 H          4.8949591624       -2.5819968365       -0.8026420998
 H          5.5156472804       -1.9605542331        0.7380413237
 O          3.9054410660       -0.1456157392        1.0966765445
 C          3.1514038844        1.0103713501        1.1877793109
 O          3.3634153222        1.6783520687        2.2189904863
 H         -0.6037182038        1.9777572378       -1.3622887260
 C         -0.9029595544        1.9350852740       -0.3272204009
 C          0.0200136552        2.2243712901        0.6660206870
 C         -0.3769768558        2.1171845033        1.9956262579
 C         -1.6706808591        1.7497130664        2.3183142831
 C         -2.5920263865        1.4673650473        1.3244854993
 C         -2.1968490537        1.5467490352       -0.0044854985
 N         -3.1057833592        1.2381943529       -1.0272684606
 S         -4.2191955083        0.0173932838       -0.8033803046
 O         -4.5361536629       -0.4525049224       -2.1337946120
 O         -5.3337916867        0.5167133300       -0.0354018374
 C         -3.3984694756       -1.2711873519        0.1217660066
 C         -4.0084294394       -1.7752706579        1.2529552444
 C         -3.3866705096       -2.7940387193        1.9566160864
 C         -2.1701560225       -3.2910446436        1.5166356616
 C         -1.5710865225       -2.7764278624        0.3772040108
 C         -2.1869688905       -1.7561230433       -0.3298110915
 H         -1.7364485413       -1.3369072135       -1.2163124994
 H         -0.6241577870       -3.1662738804        0.0387515723
 H         -1.6835652545       -4.0840568705        2.0620491321
 H         -3.8512559960       -3.1954952978        2.8427262978
 H         -4.9540338156       -1.3575947865        1.5588990784
 H         -2.6947153414        1.2110144148       -1.9484503924
 H         -3.6077748146        1.1941772097        1.5602869513
 H         -1.9672417831        1.6819719861        3.3538638463
 H          0.3450176070        2.3187245648        2.7743858471
 C          1.4466776024        2.5911692252        0.3339619615
 H          1.8756181124        3.0948815484        1.2099878753
 C          1.5600423344        3.5207069186       -0.8574530879
 C          1.1241389555        4.9464055262       -0.7099482874
 C          2.5806658295        4.6166300545       -0.8349662297
 H          3.0898998111        4.8651342390       -1.7541732226
 H          3.2020385067        4.7043523074        0.0444812228
 H          0.6309826074        5.4247000662       -1.5423464844
 H          0.7557829049        5.2569427982        0.2562266229
 H          1.3836583321        3.0349160652       -1.8081108795
 O          1.3251945800        0.7090132247       -1.9352100861
