  62
        -98.93815385
 C         -2.4527665131       -0.8808340857        0.8118735302
 C         -3.5061693682       -0.8951333913       -0.1352123390
 C         -4.5648087864        0.1027317298        0.0750248357
 C         -4.4918347014        0.9594795283        1.1087368441
 C         -5.5058472101        2.0130086833        1.4634637911
 C         -5.3466979566        3.3247454458        0.6826034415
 C         -5.7595888086        3.2609503792       -0.7884147110
 H         -6.7636218020        2.8425378262       -0.8653392828
 H         -5.8065876790        4.2890548374       -1.1529214156
 C         -4.7979240505        2.4646798862       -1.6816804097
 H         -3.8411637468        2.3400122646       -1.1688268271
 H         -4.5978753949        3.0284666888       -2.5957101767
 C         -5.3156220575        1.0892497603       -2.1023147841
 H         -6.1984380608        1.2073634839       -2.7346758738
 H         -4.5394576187        0.5981345164       -2.6948138203
 C         -5.6739537553        0.1649807820       -0.9315993418
 H         -6.5983850039        0.4965760599       -0.4593823098
 H         -5.8227577527       -0.8435164014       -1.3250337314
 H         -4.3064060828        3.6504228615        0.7547146838
 H         -5.9654529794        4.0758581361        1.1790524975
 H         -6.5110898679        1.6183713740        1.3127929214
 H         -5.3717720504        2.2269061766        2.5260336701
 O         -3.4577879221        0.9483134549        1.9915462409
 C         -2.4153462975        0.0494899316        1.8549252162
 O         -1.5245527248        0.1676176739        2.7214609900
 H          1.0185200915       -0.5260813023        1.1920298502
 C          0.8627221801       -0.6905015741        0.1336128788
 C         -0.2819956661       -1.3552028734       -0.2842299744
 C         -0.4856240091       -1.5413623680       -1.6469413617
 C          0.4405810618       -1.0723540998       -2.5612857821
 C          1.5812482312       -0.4109255769       -2.1418354526
 C          1.7900250815       -0.2126339676       -0.7834633936
 N          2.9341613177        0.4823722854       -0.3466895020
 S          4.4081250571        0.0414432497       -1.0476470152
 O          4.5244286732        0.7068978208       -2.3208774274
 O          4.5321296168       -1.3989407170       -1.0753238806
 C          5.5651880127        0.7444781606        0.1101497075
 C          6.0990782207       -0.0558775809        1.1022048162
 C          6.9815704523        0.5041797510        2.0124599839
 C          7.3104243978        1.8480597841        1.9173937782
 C          6.7661403372        2.6384673746        0.9159095717
 C          5.8840353928        2.0847108417        0.0018437172
 H          5.4435706470        2.6573374068       -0.7975451468
 H          7.0267255482        3.6820838847        0.8441404647
 H          7.9976930856        2.2812915631        2.6268257497
 H          7.4086051820       -0.1082765228        2.7902365446
 H          5.8226145057       -1.0977447466        1.1325595063
 H          3.0049886950        0.4944483251        0.6619667161
 H          2.3130422617       -0.0498201881       -2.8465539537
 H          0.2729544523       -1.2234569709       -3.6173433866
 H         -1.3840791593       -2.0334939761       -1.9840465398
 C         -1.2728619884       -1.8390318381        0.7481871048
 H         -0.7865254351       -1.7712080724        1.7306928848
 C         -1.6833378086       -3.2796628792        0.5198379538
 C         -0.6978385947       -4.3662624075        0.8237654126
 C         -1.8973936529       -4.1746727692        1.7015162273
 H         -2.6920965708       -4.9040768154        1.6570475925
 H         -1.7484222978       -3.7514969500        2.6845032107
 H          0.2669072304       -4.0718503657        1.2094439874
 H         -0.6655584934       -5.2284492465        0.1756093041
 H         -2.3394858295       -3.4165727922       -0.3286503381
 O         -3.5876213706       -1.6927666695       -1.1051166329
