  62
        -98.94314094
 C          1.8574002002        0.0558832997        0.3030222689
 C          2.7729207901        0.6704806696       -0.5866030013
 C          4.0531012900       -0.0287244406       -0.7677268815
 C          4.2805464400       -1.1962979105       -0.1413652614
 C          5.5225660499       -2.0381855206       -0.2534239616
 C          6.6602392401       -1.5999810707        0.6791203682
 C          7.3664774302       -0.3037333008        0.2796159880
 H          8.2718623503       -0.2329609808        0.8858140878
 H          7.6776823400       -0.3678745109       -0.7635570121
 C          6.5292395403        0.9651483093        0.4928392980
 H          5.6990418804        0.7442039594        1.1677224082
 H          7.1419297305        1.7277536993        0.9789339578
 C          5.9730163401        1.5809858493       -0.7910044619
 H          6.7976478701        1.9272995592       -1.4179544521
 H          5.3679124603        2.4495044693       -0.5194796119
 C          5.0958491399        0.6323315793       -1.6183601317
 H          4.5789676298        1.2200507693       -2.3806664217
 H          5.7139100798       -0.1165002408       -2.1129662418
 H          6.2627368103       -1.5017915906        1.6920743282
 H          7.4001866601       -2.4037203807        0.6897300581
 H          5.2317238499       -3.0566723006        0.0131996986
 H          5.8750473897       -2.0367239808       -1.2852993016
 O          3.3631993901       -1.7719264804        0.6813312188
 C          2.1514673902       -1.1543617803        0.9385994990
 O          1.4277439603       -1.7740637101        1.7454353691
 O          2.5592025401        1.7440991395       -1.2066574013
 C          0.4961711503        0.6530836699        0.6307843591
 C         -0.4842067799        0.3612986499       -0.4804916807
 C         -0.4189900301        1.0126111698       -1.7084336707
 C         -1.3177296803        0.7037486498       -2.7124509205
 C         -2.3070273503       -0.2424778201       -2.5093301703
 C         -2.3784825402       -0.9025546500       -1.2888991402
 C         -1.4667635100       -0.5999965801       -0.2864168104
 H         -1.5201921498       -1.1375185000        0.6489834096
 N         -3.3697212302       -1.8741414399       -1.0549958600
 S         -4.3198608299       -1.7391538798        0.3163885102
 O         -3.5442472197       -2.0315389597        1.4938720601
 O         -5.4534213401       -2.6007952297        0.0629925305
 C         -4.8374038398       -0.0327418197        0.3180714902
 C         -5.9365995799        0.3248537803       -0.4383841297
 C         -6.2972969198        1.6606620503       -0.5068247297
 C         -5.5483708296        2.6128654303        0.1682760101
 C         -4.4475213695        2.2381142003        0.9229129499
 C         -4.0866773796        0.9023164703        1.0013557800
 H         -3.2422270395        0.5687558202        1.5821789898
 H         -3.8648249493        2.9782996103        1.4477022198
 H         -5.8247748695        3.6536917304        0.1090620701
 H         -7.1563798899        1.9553332104       -1.0877040396
 H         -6.4940869001       -0.4484185897       -0.9418867295
 H         -3.9503285604       -2.0654643800       -1.8594274698
 H         -3.0116742905       -0.4788564401       -3.2923207201
 H         -1.2519264104        1.2107363697       -3.6630636906
 H          0.3610249900        1.7376591997       -1.8783330809
 H          0.1503828804        0.1172059399        1.5255678992
 C          0.5664270705        2.1318430499        0.9563512090
 C         -0.5063930193        2.7424505900        1.8043075892
 C          0.8723748908        2.5531521700        2.3607099189
 H          1.4944051509        3.4221089499        2.5143754487
 H          1.0242562909        1.7738839900        3.0942979590
 H         -0.8345104592        3.7447074900        1.5763966891
 H         -1.2868949693        2.0909810701        2.1677530494
 H          0.9854603604        2.7322105198        0.1605884289
