  62
        -98.94399496
 C         -1.0271056630       -1.6488398830       -0.5047767013
 C         -2.1938166202       -1.7603499713        0.2971605219
 C         -3.2527372280       -0.7730265054        0.0589778027
 C         -3.0765104028        0.1563863104       -0.8972650154
 C         -4.0666583030        1.2309448377       -1.2399585432
 C         -3.8038003620        2.5135537394       -0.4401486917
 C         -3.6086950097        2.2787169950        1.0572715204
 H         -2.6943331452        1.7009637121        1.2112995147
 H         -3.4544979331        3.2542721840        1.5226163682
 C         -4.7828116313        1.5675743561        1.7448810562
 H         -4.9993054688        2.0785142914        2.6854369094
 H         -5.6761982198        1.6417691002        1.1235726985
 C         -4.5272125716        0.0985209683        2.0875224028
 H         -3.5823597257        0.0068796576        2.6292966621
 H         -5.3226945231       -0.2367874760        2.7585523518
 C         -4.4954885823       -0.8696962763        0.8980842500
 H         -5.3883995934       -0.7299275824        0.2850815416
 H         -4.5092322867       -1.8883172219        1.2968473952
 H         -2.8990839854        2.9802648839       -0.8318159820
 H         -4.6405483287        3.1963603625       -0.5982669531
 H         -3.9779161527        1.4514482838       -2.3051162315
 H         -5.0714594928        0.8633424470       -1.0399131091
 O         -1.9487781050        0.2372868143       -1.6446841433
 C         -0.8933956766       -0.6502367820       -1.4694818274
 O          0.0653948187       -0.4286574419       -2.2337637782
 O         -2.3463456692       -2.6624614529        1.1645652575
 C          0.0509670799       -2.6889704687       -0.2616024860
 C          1.0895248866       -2.2199431667        0.7303925531
 C          1.4169527258       -3.0116937191        1.8247161259
 C          2.3959309230       -2.6101509493        2.7154043130
 C          3.0684553857       -1.4182810695        2.5242063965
 C          2.7433407953       -0.6124409839        1.4363934362
 C          1.7517080472       -1.0123547022        0.5514096988
 H          1.5110823728       -0.3919696279       -0.2974535413
 N          3.3953711700        0.6110415759        1.2635686472
 S          3.5028192457        1.4314085901       -0.1845897526
 O          3.6568540442        0.5396516504       -1.3077768454
 O          4.5935335096        2.3602420420        0.0360445234
 C          1.9916998135        2.3649511090       -0.2708930918
 C          1.2057172025        2.3306175288       -1.4032287964
 C          0.0682028291        3.1228182396       -1.4501683729
 C         -0.2551730178        3.9341115861       -0.3744983932
 C          0.5443560075        3.9536190125        0.7588497210
 C          1.6801946334        3.1643217765        0.8125045928
 H          2.3335729325        3.1606101192        1.6690537430
 H          0.2854322730        4.5827534110        1.5951787777
 H         -1.1331627214        4.5599071993       -0.4184173193
 H         -0.5573735703        3.0926083224       -2.3284555984
 H          1.4735267565        1.6729107911       -2.2150088111
 H          4.1821161700        0.7807656516        1.8711423272
 H          3.8390480952       -1.1052504876        3.2119034435
 H          2.6420524010       -3.2328444646        3.5619475557
 H          0.8914813509       -3.9423467769        1.9789935200
 H         -0.4744997083       -3.5423002833        0.1902725188
 C          0.7415865410       -3.1712622521       -1.5227663523
 C          1.2866327433       -4.5659860321       -1.5684973595
 C          0.0749633230       -4.2073073062       -2.3745734872
 H          0.1676371969       -4.1278462398       -3.4471915045
 H         -0.8844457800       -4.5801647918       -2.0459443451
 H          2.2179278100       -4.7357954287       -2.0867875308
 H          1.1474954815       -5.1894741153       -0.6983130541
 H          1.3031931665       -2.3960497092       -2.0287181521
