  62
        -98.94460543
 C         -2.1007388610       -0.9516406529       -0.4605833805
 C         -3.1567408382       -1.2388491130        0.4398371422
 C         -4.4322834189       -0.5610973378        0.1772750728
 C         -4.5278119496        0.2752615902       -0.8724784896
 C         -5.7496807731        1.0724862148       -1.2241575538
 C         -5.7242562823        2.4540813315       -0.5556247608
 C         -5.4123439134        2.4112127650        0.9403520726
 H         -4.3871353176        2.0605289935        1.0806187949
 H         -5.4527371303        3.4381704981        1.3099854758
 C         -6.3659776789        1.5337423286        1.7633295675
 H         -6.6477880058        2.0767318160        2.6679261081
 H         -7.2805196240        1.3497589285        1.1983749763
 C         -5.7704572079        0.1982565446        2.2127733243
 H         -6.4381626692       -0.2367523616        2.9611947280
 H         -4.8059790895        0.3721613389        2.6964773838
 C         -5.5748270048       -0.8497595440        1.1099666586
 H         -6.5052210721       -0.9754104863        0.5525691234
 H         -5.3331200122       -1.8001966315        1.5945816074
 H         -6.6928968384        2.9317857880       -0.7138266868
 H         -4.9610095550        3.0624407807       -1.0465798350
 H         -5.7747645627        1.2036189960       -2.3073078777
 H         -6.6367614096        0.5235812920       -0.9139726745
 O         -3.4945704259        0.5256811180       -1.7153589453
 C         -2.2538939999       -0.0687436849       -1.5294822113
 O         -1.4014375322        0.2622402093       -2.3754127791
 O         -3.0373989812       -2.0276053328        1.4149628485
 C         -0.7556208253       -1.6184964678       -0.2228283405
 C          0.2373556585       -0.5599761986        0.1869187412
 C          0.1849702265       -0.0557048385        1.4840099887
 C          1.0462023904        0.9460170739        1.8895836866
 C          1.9777278459        1.4689257684        1.0094486044
 C          2.0373469314        0.9731339544       -0.2858955328
 C          1.1802952681       -0.0438204640       -0.6878333348
 H          1.2299460158       -0.4078636720       -1.7015673401
 N          2.9812662301        1.5001947083       -1.1831970767
 S          4.5574093520        1.6694872552       -0.6520505160
 O          4.6765252475        2.8620562144        0.1495460478
 O          5.3698344649        1.6275772073       -1.8474034678
 C          4.8534320528        0.2283833193        0.3574303060
 C          5.0645684875        0.3635227622        1.7141491875
 C          5.2451916061       -0.7768487146        2.4807551171
 C          5.2073421212       -2.0256808014        1.8808055132
 C          4.9975740755       -2.1448193686        0.5152722318
 C          4.8168103505       -1.0084844453       -0.2556844080
 H          4.6581745471       -1.0644067235       -1.3206153505
 H          4.9705968181       -3.1172911418        0.0504799704
 H          5.3432185158       -2.9123923995        2.4796924091
 H          5.4105802996       -0.6875666704        3.5423160697
 H          5.0861957819        1.3530719825        2.1404917777
 H          2.9387237104        1.0963968299       -2.1068564721
 H          2.6484103707        2.2608217133        1.3010103700
 H          0.9917006157        1.3272982724        2.8979196120
 H         -0.5508767803       -0.4559846448        2.1675820362
 H         -0.9138450316       -2.2859392206        0.6352024841
 C         -0.3205689058       -2.4493263252       -1.4110781118
 C          0.7630185546       -3.4699677694       -1.2369917432
 C         -0.6550043532       -3.9093315035       -1.4412130499
 H         -0.9279557699       -4.3548278689       -2.3861916664
 H         -1.1925760628       -4.3157282134       -0.5971613759
 H          1.4662382633       -3.6188842364       -2.0420907679
 H          1.1893919223       -3.5772703227       -0.2512849028
 H         -0.3709138856       -1.9129958374       -2.3510888395
