  62
        -98.94268749
 C         -1.6369360675       -1.4559331940        0.2348969123
 C         -1.3226133500       -0.3670112014       -0.6098322514
 C         -1.9441592154        0.9203854720       -0.2712778033
 C         -2.7326960321        0.9984941595        0.8158079512
 C         -3.4756825482        2.2231171114        1.2692384756
 C         -4.7165238775        2.4554992413        0.3836678671
 C         -4.6631951252        3.7353148528       -0.4506607260
 H         -5.4739399124        3.6847382294       -1.1804662135
 H         -4.8567315426        4.5910127831        0.1994949156
 C         -3.3449186341        3.9930607798       -1.1859863712
 H         -2.6081381275        4.3962343878       -0.4894186120
 H         -3.5388613206        4.7753828443       -1.9228433854
 C         -2.7316280111        2.7822303571       -1.9003769962
 H         -2.3170663930        3.1238358859       -2.8508379864
 H         -3.4994617721        2.0445005908       -2.1337266542
 C         -1.5839592612        2.0972388429       -1.1355834260
 H         -0.8716910362        1.6986060650       -1.8642144796
 H         -1.0482524169        2.8342520504       -0.5291764419
 H         -4.8313090369        1.5928853196       -0.2757889299
 H         -5.6082714576        2.4925298003        1.0111546436
 H         -3.7718226930        2.0556046391        2.3052729179
 H         -2.8096543646        3.0829637349        1.2362904306
 O         -3.0090758626       -0.0703904863        1.6082431903
 C         -2.4546859797       -1.3136595344        1.3530519623
 O         -2.7624242978       -2.1978098739        2.1800269471
 O         -0.5473688400       -0.4660698029       -1.5984402603
 C         -0.9902554351       -2.8064539355       -0.0148541515
 C          0.5103880817       -2.6442076558       -0.0668501849
 C          1.3202930202       -3.3008536472       -0.9850982481
 C          2.6876974009       -3.0845880123       -0.9957172254
 C          3.2719048615       -2.1960075068       -0.1115866406
 C          2.4711483255       -1.5439792865        0.8188727561
 C          1.1099859299       -1.7955798349        0.8552333113
 H          0.5031436291       -1.2825169210        1.5874921698
 N          3.0090491244       -0.6135396262        1.7333682996
 S          2.4783811000        0.9729846644        1.6147223783
 O          3.2282541779        1.6921299287        2.6231582292
 O          1.0436829430        1.0283162786        1.7264825511
 C          3.0174416502        1.5010623455       -0.0023313870
 C          4.1848233601        2.2344316954       -0.1015733107
 C          4.6456553963        2.5982025808       -1.3561558555
 C          3.9392804586        2.2154382459       -2.4867546144
 C          2.7737501926        1.4745762036       -2.3693415711
 C          2.3035472828        1.1090899714       -1.1167770857
 H          1.3965837065        0.5349722905       -1.0058819309
 H          2.2190082758        1.1707635464       -3.2426647155
 H          4.2977933828        2.4956813762       -3.4646961478
 H          5.5517741265        3.1750999530       -1.4482153288
 H          4.6971389233        2.5112400854        0.8057989996
 H          4.0198631991       -0.6164881619        1.7661160984
 H          4.3342626885       -2.0055446156       -0.1387080408
 H          3.3037724276       -3.6002937182       -1.7163094884
 H          0.8788969724       -3.9770436762       -1.6989034107
 H         -1.2422729546       -3.4323705980        0.8541402771
 C         -1.5678481555       -3.4439759592       -1.2622793404
 C         -1.6756066382       -4.9346097437       -1.3725222627
 C         -2.9089749935       -4.1063592036       -1.1779735603
 H         -3.5936470300       -3.9937213234       -2.0051163199
 H         -3.3917173020       -4.1208447629       -0.2112778255
 H         -1.5173952160       -5.3936536296       -2.3367672264
 H         -1.3276445112       -5.5249047470       -0.5383160762
 H         -1.3452032982       -2.8763897741       -2.1585472502
