  62
        -98.94513810
 C         -1.5425119401       -0.8049551932        0.0294313445
 C         -2.8185136482       -1.4111888004        0.0965558292
 C         -3.9150712079       -0.5469115412        0.5538847096
 C         -3.6493765111        0.7278289066        0.8940189510
 C         -4.6791477101        1.7306810826        1.3260177086
 C         -5.2269571494        2.5170747851        0.1268668394
 C         -5.6624439182        1.6350368879       -1.0432723114
 H         -4.7840394052        1.1391950784       -1.4625920705
 H         -6.0595884408        2.2946184509       -1.8179808716
 C         -6.7157704833        0.5778930383       -0.6835614849
 H         -7.4881160225        0.5757413083       -1.4556698603
 H         -7.2001348891        0.8418479769        0.2573181880
 C         -6.1751307551       -0.8503008835       -0.5912182413
 H         -5.6087087160       -1.0869575271       -1.4955533359
 H         -7.0269662811       -1.5345929580       -0.5510753701
 C         -5.2894287096       -1.1508873224        0.6245783272
 H         -5.1388116854       -2.2337977589        0.6657944338
 H         -5.8015740486       -0.8412547290        1.5380014240
 H         -4.4475147473        3.1951747093       -0.2277316968
 H         -6.0726388223        3.1184530984        0.4654879784
 H         -5.4902241114        1.2146693105        1.8361230612
 H         -4.2092470246        2.4274153511        2.0221096647
 O         -2.4053822542        1.2677129158        0.8389346291
 C         -1.3196896521        0.5219108250        0.3998313580
 O         -0.2401572633        1.1389465788        0.3902240218
 H          2.3463508017       -1.1614761044       -0.7738073548
 C          2.0594843621       -1.3456807474        0.2469278469
 C          0.7402470014       -1.6144510961        0.5736133826
 C          0.4265730842       -1.8924834478        1.9021095505
 C          1.4043155989       -1.8771277670        2.8769104964
 C          2.7157275081       -1.5755845635        2.5518681603
 C          3.0421844708       -1.3127809806        1.2277452955
 N          4.3638789001       -1.0267791193        0.8626845394
 S          4.7048010408       -0.0196903988       -0.4234412807
 O          4.5096727448       -0.7217321123       -1.6676314629
 O          6.0571785400        0.4296793618       -0.1667666170
 C          3.5805888544        1.3593840943       -0.3099230143
 C          2.8012153604        1.6932042794       -1.3973623962
 C          1.9496902545        2.7810168058       -1.3041270869
 C          1.8900816396        3.5108169626       -0.1288519805
 C          2.6809621982        3.1643637313        0.9546348624
 C          3.5369552318        2.0799101711        0.8661264911
 H          4.1681751706        1.7910452111        1.6910505746
 H          2.6268764837        3.7325990394        1.8694859944
 H          1.2171250527        4.3503611430       -0.0552357524
 H          1.3275093489        3.0491390060       -2.1434166317
 H          2.8724148524        1.0941608201       -2.2918949196
 H          5.0060346341       -0.8976238801        1.6299143307
 H          3.4791790782       -1.5500236569        3.3141934465
 H          1.1438000200       -2.0919502921        3.9024354217
 H         -0.5999251192       -2.1149044531        2.1604647451
 C         -0.3603151191       -1.6218370687       -0.4572955262
 H         -0.7332548439       -2.6519090616       -0.5605846485
 C          0.0886957441       -1.1252655590       -1.8157597076
 C          0.7596795757       -2.0557651147       -2.7798866271
 C         -0.6384873421       -1.5843895820       -3.0424405141
 H         -0.8050043490       -0.8760631974       -3.8401875565
 H         -1.4483598216       -2.2861970960       -2.9055187244
 H          0.8991481035       -3.0803983406       -2.4694984755
 H          1.5623966196       -1.6746388924       -3.3938164325
 H          0.4199653385       -0.0926115347       -1.7870100476
 O         -3.0293379787       -2.6174169978       -0.2054118925
