  62
        -98.94375998
 C         -1.8148107906       -0.6154385301       -0.3072290402
 C         -3.0815236431       -1.2414024662       -0.3818159716
 C         -4.1409912591       -0.6489547357        0.4454933503
 C         -3.8531914485        0.4120153239        1.2218396450
 C         -4.8490172358        1.1490833122        2.0686477841
 C         -5.4871603241        2.3085845620        1.2907118668
 C         -6.0094437296        1.9123838114       -0.0903128101
 H         -6.4647775798        2.8008532129       -0.5331153998
 H         -5.1650614748        1.6338143459       -0.7248779321
 C         -7.0313806131        0.7669929940       -0.0774503780
 H         -7.4421062096        0.6475355158        0.9258469701
 H         -7.8608021383        1.0297747202       -0.7374722388
 C         -6.4840549327       -0.5762294777       -0.5638566401
 H         -5.9918358685       -0.4426694867       -1.5305319842
 H         -7.3294283590       -1.2521841512       -0.7182353774
 C         -5.5035890255       -1.2797230358        0.3830726185
 H         -5.9422615218       -1.3503264824        1.3806573479
 H         -5.3470823279       -2.2943457240        0.0046741085
 H         -6.3049947235        2.7158736144        1.8879081580
 H         -4.7376555641        3.0927379416        1.1614244154
 H         -5.6180544286        0.4559718553        2.4041621423
 H         -4.3295693250        1.5503138119        2.9405806098
 O         -2.6182615728        0.9705235343        1.2862984652
 C         -1.5693012664        0.4799297812        0.5210836774
 O         -0.4965229608        1.0914603317        0.6692437952
 H          2.0131198521       -0.8480700707       -1.6279943313
 C          1.8067552877       -1.3329161240       -0.6861677114
 C          0.4951449427       -1.5621567486       -0.2969714269
 C          0.2700618913       -2.2031916060        0.9182025417
 C          1.3230655126       -2.5762556749        1.7314512334
 C          2.6298674359       -2.3326276670        1.3458659786
 C          2.8676045316       -1.7117163068        0.1284498132
 N          4.2025273223       -1.4726924658       -0.2665636986
 S          5.0538224335       -0.3056866237        0.5832374967
 O          6.3930792157       -0.3226096385        0.0404300148
 O          4.9282387557       -0.5721737556        1.9924139780
 C          4.2560854576        1.2313251153        0.1549166337
 C          4.8820290406        2.0937022671       -0.7244426373
 C          4.2235424124        3.2491190709       -1.1122465750
 C          2.9479566540        3.5105777198       -0.6335147002
 C          2.3304361357        2.6321483472        0.2435075717
 C          2.9912493453        1.4828377216        0.6476637549
 H          2.5249873242        0.7883835258        1.3277021251
 H          1.3277216040        2.8046103070        0.6007160085
 H          2.4290302485        4.4032785938       -0.9463920132
 H          4.7006994722        3.9369875199       -1.7918825239
 H          5.8687535218        1.8435590862       -1.0796990201
 H          4.2992580650       -1.2895835752       -1.2562302269
 H          3.4628636143       -2.5985242399        1.9754556419
 H          1.1259827164       -3.0633063791        2.6747520248
 H         -0.7485844709       -2.3984198677        1.2250143725
 C         -0.6786363924       -1.1564539121       -1.1539797893
 H         -1.0793780243       -2.0622556003       -1.6342467834
 C         -0.3131396580       -0.1546211902       -2.2312234440
 C          0.1736556651       -0.6178613652       -3.5712594433
 C         -1.1988248300       -0.0325959310       -3.4335921379
 H         -1.3864219732        0.9498673512       -3.8399155125
 H         -2.0477404845       -0.6982967049       -3.4920267568
 H          0.2538236072       -1.6819541895       -3.7357199450
 H          0.9282817140       -0.0337881683       -4.0767924416
 H          0.1038024491        0.7590758584       -1.8214633122
 O         -3.3129842372       -2.2496788450       -1.1030497479
