  62
        -98.93559300
 C         -2.2131903382       -1.0630345621       -0.0973513036
 C         -2.9481625709       -0.5176521179        0.9854561744
 C         -3.8053548291        0.6460866417        0.7031439634
 C         -3.8460759298        1.1431795068       -0.5466653288
 C         -4.5825002914        2.3326856600       -1.1268186718
 C         -5.7000508084        3.0159275004       -0.3432146567
 C         -6.9602437894        2.1707898319       -0.1592618885
 H         -7.6423085435        2.7131708040        0.4989790367
 H         -7.4500120039        2.0631571249       -1.1303646582
 C         -6.7374554541        0.7685828274        0.4017504409
 H         -7.7116266000        0.2766027676        0.4676451743
 H         -6.1301610754        0.1871020198       -0.2949534225
 C         -6.0950109799        0.7121937054        1.7862565967
 H         -6.1387139719       -0.3255429874        2.1275102581
 H         -6.6739683969        1.3186834095        2.4852852446
 C         -4.6241285927        1.1581756347        1.8530967621
 H         -4.1817744242        0.7298706827        2.7572384619
 H         -4.5408972811        2.2396608588        1.9314625339
 H         -5.9800357755        3.9059022344       -0.9134212413
 H         -5.3279359486        3.3623929378        0.6164562321
 H         -3.8099680028        3.0773260214       -1.3498509591
 H         -4.9745720562        1.9986616468       -2.0928819815
 O         -3.1045967768        0.5997494547       -1.5546602941
 C         -2.2798578170       -0.5011660444       -1.3707292123
 O         -1.6864852408       -0.8521585986       -2.4087203542
 O         -2.8919679812       -0.9906313584        2.1520691101
 C         -1.3509108854       -2.2769054601        0.2055711508
 C          0.0677736751       -1.8631361994        0.5020546806
 C          0.6864771214       -2.2193296579        1.6941242602
 C          1.9815540904       -1.8114682599        1.9642167305
 C          2.6849028600       -1.0447787487        1.0526115887
 C          2.0727522636       -0.6775125931       -0.1388124921
 C          0.7752575810       -1.0871965034       -0.4066783349
 H          0.3019471015       -0.7966924151       -1.3335415381
 N          2.7800042636        0.1002207262       -1.0760063699
 S          3.4128504183        1.5596358413       -0.5311800541
 O          2.6476364639        2.0856487942        0.5765518663
 O          3.5082949707        2.3993652007       -1.7053173320
 C          5.0545743754        1.1284500492        0.0073734067
 C          5.4464067852        1.3886504093        1.3058943157
 C          6.7307907640        1.0455076120        1.6992821319
 C          7.5953038411        0.4523768092        0.7920036408
 C          7.1869524649        0.2002826155       -0.5094511259
 C          5.9049505706        0.5416841664       -0.9094247299
 H          5.5486969715        0.3675289660       -1.9110126565
 H          7.8621471693       -0.2606377850       -1.2122592076
 H          8.5934947394        0.1851715506        1.1010197654
 H          7.0500572238        1.2410670515        2.7103417959
 H          4.7372079370        1.8462424305        1.9772431245
 H          2.2640985213        0.2455962463       -1.9329331305
 H          3.6929907956       -0.7231660423        1.2572134329
 H          2.4487393580       -2.0931886716        2.8953740081
 H          0.1386528215       -2.8043987138        2.4181832397
 H         -1.7740617354       -2.6887818725        1.1352042855
 C         -1.4535530810       -3.3614826108       -0.8589949559
 C         -0.3186321974       -3.7763575219       -1.7422937114
 C         -0.7778335117       -4.6836482458       -0.6432748490
 H         -1.3102107394       -5.5866048229       -0.9005203288
 H         -0.1406150528       -4.7754811460        0.2234066281
 H         -0.5525979781       -4.0333962777       -2.7642379809
 H          0.6308773530       -3.2780305096       -1.6278780843
 H         -2.4406670513       -3.3889420637       -1.3098306899
