  62
        -98.92623837
 C         -2.2451480848       -0.6018218700       -0.0709460862
 C         -3.5437634855       -1.1520047618        0.0611278335
 C         -4.6309709991       -0.2301506581        0.4295405297
 C         -4.3491423408        1.0718059897        0.6219610328
 C         -5.2285662965        2.2335735438        1.0357833597
 C         -6.7495016793        2.1054441477        1.0212224553
 C         -7.3663792596        1.9807505849       -0.3716838455
 H         -7.2551537618        2.9382470745       -0.8867635376
 H         -8.4350374276        1.7871030729       -0.2567372989
 C         -6.7597765386        0.9043401644       -1.2683557796
 H         -5.7106012325        1.1366235355       -1.4627866068
 H         -7.2797110402        0.9379803911       -2.2297167160
 C         -6.8609755642       -0.5235795071       -0.7360669115
 H         -6.5331050318       -1.1960270064       -1.5334523286
 H         -7.9024973726       -0.7583822729       -0.5081132233
 C         -6.0064010934       -0.8285503864        0.5059594160
 H         -5.8654706777       -1.9118971098        0.5606583303
 H         -6.5101289826       -0.5183887369        1.4181877931
 H         -7.1428827512        3.0193071507        1.4746691289
 H         -7.0633477963        1.2804717507        1.6537628787
 H         -4.9331730065        3.0720355609        0.3969877221
 H         -4.9120855321        2.4956645046        2.0513405960
 O         -3.0793918752        1.5551656291        0.4970046607
 C         -2.0021669168        0.7542173512        0.1410283373
 O         -0.9275172874        1.3747837071        0.0610707730
 O         -3.7874064141       -2.3767727616       -0.1147359082
 C         -1.1246754453       -1.5559437565       -0.4658826136
 C          0.0231215531       -1.4555779046        0.5043623056
 C         -0.0793374767       -2.2025097012        1.6792711547
 C          0.9061389645       -2.1618054491        2.6454809625
 C          2.0405561783       -1.3929654823        2.4541543212
 C          2.1505811890       -0.6354776821        1.2959986007
 C          1.1431628084       -0.6568751240        0.3396406954
 H          1.2587761761       -0.0159231770       -0.5150128216
 N          3.2775040970        0.1702439916        1.0670746853
 S          3.8638168272        0.2574585033       -0.5137815262
 O          3.2442026097        1.3664745187       -1.1934215375
 O          3.7429166539       -1.0351541044       -1.1497530272
 C          5.5812036625        0.6309273508       -0.2064097009
 C          6.5115119291       -0.3908787850       -0.2284287672
 C          7.8387129098       -0.0953693492        0.0408976280
 C          8.2105381813        1.2089575091        0.3297241292
 C          7.2655222660        2.2242633526        0.3478066410
 C          5.9371943717        1.9360446575        0.0776946290
 H          5.1693390333        2.6923271595        0.0704635831
 H          7.5585874640        3.2376697125        0.5700271748
 H          9.2437197212        1.4367180949        0.5391311951
 H          8.5759648560       -0.8817310810        0.0238487750
 H          6.1766396396       -1.3877879353       -0.4658470568
 H          4.0174576178        0.0185769064        1.7384641249
 H          2.8236809657       -1.3696099150        3.1968207838
 H          0.7991520609       -2.7454654955        3.5473651216
 H         -0.9571758152       -2.8163504438        1.8289382909
 H         -1.5684423292       -2.5532326812       -0.3122240750
 C         -0.8633087919       -1.4752350948       -1.9652038584
 C         -0.2388766011       -0.3224047022       -2.6904797191
 C          0.4702423247       -1.6429540222       -2.6280348482
 H          0.5130305870       -2.2359271237       -3.5302429736
 H          1.3569572378       -1.7194495296       -2.0174728038
 H         -0.6826394468       -0.0231494021       -3.6303147179
 H          0.1387665609        0.5111523064       -2.1195275846
 H         -1.7003449451       -1.9300400391       -2.4916125329
