  62
        -98.94052248
 C          1.1459477182        1.2591770056       -0.0142386974
 C          1.6196953878        0.2234253176        0.8240555023
 C          2.7393821960       -0.5698748323        0.3027779996
 C          3.2030637931       -0.3280337419       -0.9363889180
 C          4.2908452899       -1.0837448991       -1.6534037635
 C          5.7047310220       -0.9872781668       -1.0481279967
 C          6.0603487804       -2.1277349438       -0.0862822612
 H          5.4439721567       -2.9946843787       -0.3280082096
 H          7.0973660513       -2.4224608288       -0.2594638990
 C          5.9296991590       -1.8075660296        1.4057984907
 H          5.9630152464       -2.7515976353        1.9539252390
 H          6.7913511210       -1.2140475576        1.7197215501
 C          4.6722649826       -1.0409867638        1.8157227697
 H          4.6057615397       -1.0538183635        2.9053735779
 H          4.7700926343        0.0072555266        1.5236198348
 C          3.3611084092       -1.5858434902        1.2161128119
 H          3.5356723492       -2.5210371213        0.6854673121
 H          2.6365801220       -1.7756392099        2.0109145017
 H          5.8244111905       -0.0218883615       -0.5571937458
 H          6.4069365919       -1.0150586542       -1.8828297057
 H          3.9955353716       -2.1335214611       -1.7244103056
 H          4.3075997462       -0.6752417596       -2.6660876248
 O          2.6824862313        0.6441524743       -1.7347968551
 C          1.6496591001        1.4610993139       -1.2986478058
 O          1.2767664451        2.3066475494       -2.1342221064
 H         -0.8193172980       -0.1699131866       -0.6129622466
 C         -1.5058038322        0.6321204937       -0.8355151926
 C         -1.2253862891        1.9175910373       -0.3941482469
 C         -2.1087142606        2.9373441237       -0.7267637582
 C         -3.2313277483        2.6680334094       -1.4906470745
 C         -3.5141752032        1.3818688069       -1.9138359636
 C         -2.6393733855        0.3540485492       -1.5812557836
 N         -2.8818127269       -0.9699982851       -1.9773607549
 S         -2.4855029659       -2.2167568009       -0.9341131898
 O         -1.0619588147       -2.4456382428       -0.9370052318
 O         -3.3002568319       -3.3261171115       -1.3838484488
 C         -3.0517684639       -1.6652843623        0.6656384770
 C         -2.1605257994       -1.2800267137        1.6455090888
 C         -2.6567056317       -0.8046497834        2.8499747397
 C         -4.0246617568       -0.7241743199        3.0547604288
 C         -4.9080327807       -1.1245185642        2.0631723547
 C         -4.4190992187       -1.5962677960        0.8568138316
 H         -5.0722735506       -1.9273135417        0.0658609818
 H         -5.9721279063       -1.0667142517        2.2258400446
 H         -4.4030570423       -0.3498029385        3.9928404394
 H         -1.9609446755       -0.4953035525        3.6137968379
 H         -1.0981061359       -1.3440709083        1.4684667583
 H         -3.7694026792       -1.1250001438       -2.4321113496
 H         -4.3940526811        1.1738253110       -2.5028372526
 H         -3.9029570521        3.4713876595       -1.7522195909
 H         -1.9137815578        3.9439452707       -0.3951655302
 C         -0.0020476871        2.1260680782        0.4653865039
 H         -0.2415831824        1.7566629411        1.4748664584
 C          0.4243518980        3.5759292024        0.5669989412
 C         -0.1605269214        4.4662204317        1.6214629612
 C          1.2591114008        4.0016437368        1.7366642210
 H          2.0537905118        4.7135072695        1.5712381674
 H          1.4947774485        3.2499343921        2.4760190647
 H         -0.3394795695        5.5029074781        1.3790726437
 H         -0.8881730281        4.0359173384        2.2926681117
 H          0.6599800832        4.0073946629       -0.3991868674
 O          1.1216911419       -0.0328876907        1.9542268119
