  62
        -98.94326800
 C         -1.3738501529       -1.2418798966       -0.8171663620
 C         -0.8940568392       -2.0864888710        0.2122605560
 C          0.4518536617       -2.6442392693        0.0151623669
 C          1.1472217972       -2.3105585892       -1.0862736362
 C          2.5766587158       -2.6841891051       -1.3593444484
 C          3.5141173104       -1.7807990260       -0.5309610194
 C          4.3347669376       -2.5234393942        0.5226465658
 H          5.1348814458       -3.0796605153        0.0287340976
 H          4.7988433628       -1.7675915626        1.1603261357
 C          3.5494076921       -3.5022460902        1.4012306926
 H          4.1749116729       -3.7254795127        2.2682346596
 H          3.4098612603       -4.4435872221        0.8666615448
 C          2.1813761361       -3.0114745091        1.8945417136
 H          2.0513785252       -3.3462360342        2.9262131319
 H          2.1380572505       -1.9210207384        1.9076489165
 C          0.9832436124       -3.5507829819        1.0892582943
 H          1.2364016076       -4.5240803833        0.6587752259
 H          0.1423709760       -3.6986508090        1.7734198456
 H          2.9117582626       -1.0166965643       -0.0332498574
 H          4.2038251634       -1.2581997707       -1.1968123472
 H          2.7382311323       -3.7312285291       -1.1126388072
 H          2.7562482636       -2.5439090931       -2.4257768376
 O          0.6495559667       -1.5023214077       -2.0585428922
 C         -0.6084657322       -0.9309362938       -1.9386428724
 O         -0.9225113739       -0.1760084420       -2.8813198609
 H         -0.6994904969        1.1053541951       -0.0826616283
 C         -1.4372642586        1.1282657666        0.7062250691
 C         -2.5881682812        0.3599256314        0.5784700750
 C         -3.5401038285        0.4187419603        1.5865658091
 C         -3.3153235430        1.1952158407        2.7113004620
 C         -2.1388058307        1.9053918934        2.8632199947
 C         -1.1876873215        1.8673379017        1.8488193657
 N          0.0176978717        2.5758024584        1.9510031670
 S          1.4046499217        1.9953714328        1.2167342432
 O          1.4721129291        0.5529643314        1.2205083193
 O          2.4794189544        2.6751807675        1.9115027969
 C          1.3136459245        2.6270544272       -0.4439588716
 C          1.6364859973        1.8107841572       -1.5083769903
 C          1.5811016460        2.3267044576       -2.7931684497
 C          1.2106158392        3.6475220637       -2.9889000745
 C          0.8974195123        4.4587860397       -1.9083169736
 C          0.9493899040        3.9473664321       -0.6221267868
 H          0.7110574846        4.5451019602        0.2417586030
 H          0.6099450382        5.4858690354       -2.0659347562
 H          1.1641190598        4.0441256342       -3.9908451329
 H          1.8129976221        1.6878898713       -3.6301119077
 H          1.9054485301        0.7828121068       -1.3221476114
 H          0.2029477565        2.9893409935        2.8527766575
 H         -1.9512471258        2.4791896529        3.7579360945
 H         -4.0586818067        1.2280587151        3.4934381003
 H         -4.4479178608       -0.1557579345        1.5022212682
 C         -2.6990982408       -0.5178819964       -0.6460352681
 H         -2.8105885088        0.1288691144       -1.5285984834
 C         -3.8567331938       -1.4908545377       -0.5990509255
 C         -5.2206520114       -1.0598885702       -1.0459594963
 C         -4.4204546379       -2.0064488096       -1.8878504620
 H         -4.7269891478       -3.0403490229       -1.9389178235
 H         -3.9827824546       -1.6353363574       -2.8032612957
 H         -5.3346495043       -0.0451311106       -1.3959407189
 H         -6.0814074660       -1.4462187359       -0.5212941085
 H         -3.7818835478       -2.1865390093        0.2284600711
 O         -1.5550726573       -2.3598431044        1.2489792049
