  62
        -98.93347371
 C         -2.4598626338       -1.4552826170        0.2046095724
 C         -2.3695493614       -0.2628269300       -0.5559933780
 C         -3.5600064966        0.6084815108       -0.5362440241
 C         -4.6397040486        0.2414531405        0.1755155854
 C         -5.8957208303        1.0481053621        0.3443084732
 C         -5.6649187703        2.1758437977        1.3702673046
 C         -5.7428435615        3.5858448859        0.7845292456
 H         -6.7904980062        3.8419960628        0.6134281531
 H         -5.3535284088        4.2746425796        1.5372333303
 C         -4.9869919324        3.8050751222       -0.5296186320
 H         -4.9095072591        4.8844895818       -0.6761253008
 H         -5.5780645963        3.4203782563       -1.3621173194
 C         -3.5803085319        3.1968152884       -0.6044350760
 H         -2.9317038961        3.9012349341       -1.1296998580
 H         -3.1611565862        3.0680821757        0.3939457739
 C         -3.4989245875        1.8609005504       -1.3665864494
 H         -4.2780347161        1.8298691226       -2.1337519986
 H         -2.5325078426        1.8115696835       -1.8777810887
 H         -4.6858384311        2.0255277625        1.8301736775
 H         -6.4027449291        2.0969262688        2.1700491286
 H         -6.2005283403        1.4594921742       -0.6153592084
 H         -6.6721253354        0.3683323075        0.6960338088
 O         -4.6830210598       -0.9030745901        0.9053293998
 C         -3.6012181062       -1.7647759895        0.9511655771
 O         -3.7750580526       -2.7598802905        1.6819500744
 H          0.7301565924       -1.7361544041       -1.3667385767
 C          0.9103120158       -1.4380083536       -0.3457655985
 C         -0.0308617347       -1.7277422668        0.6279905352
 C          0.2014163832       -1.2975889355        1.9307881019
 C          1.3529926232       -0.6023621797        2.2482978765
 C          2.2916231435       -0.3139750675        1.2727830194
 C          2.0574406460       -0.7189457211       -0.0340752153
 N          2.9969105843       -0.4318624651       -1.0359327033
 S          3.7894674093        1.0436167433       -1.0462115330
 O          2.9883338602        2.1063804851       -0.4854223225
 O          4.2261184332        1.2207448242       -2.4144345794
 C          5.2180844975        0.7499573226       -0.0214995010
 C          5.5317206335        1.6324028723        0.9934658996
 C          6.6537089790        1.3902218654        1.7709108005
 C          7.4395440561        0.2761029004        1.5200368094
 C          7.1133968609       -0.5988457890        0.4945295040
 C          5.9938014079       -0.3616530960       -0.2865605327
 H          5.7081542881       -1.0159175957       -1.0930562522
 H          7.7267748540       -1.4643649148        0.3022349973
 H          8.3111296752        0.0887875386        2.1271399108
 H          6.9088108910        2.0701901037        2.5678320262
 H          4.8885695243        2.4828767414        1.1562560449
 H          2.6906273515       -0.6861951541       -1.9637351747
 H          3.1841940784        0.2407051154        1.5113265037
 H          1.5224459354       -0.2783261051        3.2640219722
 H         -0.5391436493       -1.5083823658        2.6904749675
 C         -1.3146906761       -2.4508067127        0.3082337538
 H         -1.5705325304       -3.0817688248        1.1742694639
 C         -1.1835044828       -3.3887632411       -0.8832142969
 C         -2.4056686869       -3.9648553816       -1.5321592212
 C         -1.5436987117       -2.9972258182       -2.2833606248
 H         -0.9338096145       -3.3769549455       -3.0906027898
 H         -1.9144418722       -1.9986774271       -2.4522401263
 H         -2.3937919528       -5.0036578108       -1.8254865290
 H         -3.3653337305       -3.6225268751       -1.1726071857
 H         -0.3364772427       -4.0589826685       -0.7708132522
 O         -1.3628497923        0.0719509527       -1.2336043031
