  62
        -98.94829649
 C         -1.1572170122       -1.5491610815        0.4615721383
 C         -2.0002011150       -1.1649454073       -0.6094278908
 C         -3.0519476422       -0.1924803716       -0.2789472048
 C         -3.1657734293        0.2561522233        0.9839411739
 C         -4.1896147569        1.2468160575        1.4562559994
 C         -3.6621051673        2.6861094225        1.3978957218
 C         -3.0259884770        3.0661762423        0.0604004301
 H         -2.7564342748        4.1235722880        0.1209393675
 H         -2.0898873284        2.5174058983       -0.0700171465
 C         -3.9257500197        2.8417429431       -1.1626708660
 H         -3.8342361480        3.7084671761       -1.8208905977
 H         -4.9694009905        2.7794619551       -0.8505036058
 C         -3.5685362800        1.6113836867       -1.9994746507
 H         -2.4926606875        1.6097655474       -2.1964171710
 H         -4.0791750817        1.6957486644       -2.9628732961
 C         -3.9527149251        0.2547339965       -1.3945278973
 H         -4.9950224302        0.2780921560       -1.0688814125
 H         -3.8536131385       -0.5008942368       -2.1795347162
 H         -4.4917704037        3.3632900970        1.6119914064
 H         -2.9089286516        2.8140707921        2.1789770982
 H         -5.0836869198        1.1529769183        0.8426938572
 H         -4.4437282119        1.0067471301        2.4906121992
 O         -2.3375190549       -0.1352487805        1.9857754050
 C         -1.2998245066       -1.0230162561        1.7440646814
 O         -0.5878110067       -1.2638846686        2.7409378405
 H          0.4940023418        0.0435534476       -0.3546168276
 C          1.1075778223       -0.6204836836       -0.9416953066
 C          0.9498786175       -1.9915620176       -0.8082368499
 C          1.7286530946       -2.8254850059       -1.6029072906
 C          2.6261511885       -2.2891512479       -2.5095954305
 C          2.7790474285       -0.9200438746       -2.6372950001
 C          2.0054711129       -0.0781514900       -1.8467937267
 N          2.1099488182        1.3152897806       -1.9504109444
 S          1.7957650349        2.2973967706       -0.6392526870
 O          0.3831634360        2.3343834425       -0.3577303438
 O          2.4019803243        3.5626038964       -0.9959566955
 C          2.6945199264        1.5636734516        0.7152488078
 C          2.0227084424        0.9945122239        1.7765279823
 C          2.7514130119        0.3889733832        2.7880536664
 C          4.1355410604        0.3695596781        2.7242812521
 C          4.7990583747        0.9582550495        1.6576571691
 C          4.0744077427        1.5574418415        0.6411234139
 H          4.5547302618        2.0319704052       -0.1990200805
 H          5.8761536324        0.9468782511        1.6147320707
 H          4.6985544362       -0.1052782212        3.5121798426
 H          2.2214108920       -0.0724141994        3.6064257229
 H          0.9442416760        1.0188499104        1.8045833043
 H          2.8658715197        1.6572220084       -2.5237512062
 H          3.4772257619       -0.5050278210       -3.3475826257
 H          3.2195941543       -2.9478008430       -3.1252381066
 H          1.6261486018       -3.8949625840       -1.5161801524
 C         -0.0201633458       -2.5229125684        0.2214136832
 H          0.5186643128       -2.6025364206        1.1782183529
 C         -0.5677863096       -3.8898438873       -0.1428089752
 C          0.1162201712       -5.1374596358        0.3273711515
 C         -1.1911385462       -4.7265219559        0.9327534205
 H         -2.0767021305       -5.2967221665        0.6956520100
 H         -1.1879159682       -4.3230691976        1.9352636011
 H          1.0052274581       -5.0267438867        0.9298550313
 H          0.1270947090       -5.9964230630       -0.3267004646
 H         -1.0387355418       -3.8989859776       -1.1189949120
 O         -1.8858222202       -1.6145540084       -1.7798609569
