  62
        -98.93302266
 C          1.6772384099        1.0284869898        0.5328839289
 C          2.0553742701       -0.3327560501        0.4064168188
 C          3.4603403400       -0.6174858298        0.0644224683
 C          4.2996867698        0.4134631503       -0.1380995721
 C          5.7664361296        0.3892333306       -0.4868898427
 C          6.2052981894       -0.6205502894       -1.5583557628
 C          7.0252703098       -1.7842866092       -0.9985289631
 H          7.6443074796       -2.1928990191       -1.8004332634
 H          7.7000236101       -1.3970204690       -0.2321604734
 C          6.2062939903       -2.9347391793       -0.4158479327
 H          5.7215988801       -3.4805624395       -1.2282036425
 H          6.9027761906       -3.6235527292        0.0680947570
 C          5.1353401906       -2.5273707295        0.5981320977
 H          5.5128852007       -1.7484372694        1.2596474675
 H          4.9188163310       -3.3972049895        1.2218592778
 C          3.8166476303       -2.0747712698       -0.0469010018
 H          3.7990032899       -2.3627687598       -1.1019248718
 H          2.9782583806       -2.5995574999        0.4213224186
 H          5.3344097092       -0.9934579296       -2.0951474725
 H          6.8265107390       -0.0888584393       -2.2810215731
 H          5.9943112393        1.4047732506       -0.8187626128
 H          6.3373889700        0.2274183507        0.4309353471
 O          3.8927234896        1.7075596902       -0.0176524620
 C          2.5941087296        2.0557575200        0.3145783585
 O          2.4146965194        3.2887003600        0.3719923485
 O          1.2456784704       -1.2823817902        0.5853010992
 C          0.2315658500        1.2934810496        0.9095024795
 C         -0.6352921305        1.5979890593       -0.2890885702
 C         -0.3385684911        2.6366909094       -1.1646689303
 C         -1.1778297016        2.9122613692       -2.2286244100
 C         -2.3373909515        2.1818444889       -2.4226371095
 C         -2.6461073409        1.1463371089       -1.5491108493
 C         -1.7841271405        0.8507945691       -0.5026261697
 H         -2.0177737000        0.0307375691        0.1586574005
 N         -3.8119622809        0.3853393387       -1.7109685988
 S         -4.6853052402       -0.0929543314       -0.3637063385
 O         -6.0252468504       -0.3163292317       -0.8628466479
 O         -4.5573869600        0.8562596886        0.7166071014
 C         -3.9741239897       -1.6578203613        0.0966032613
 C         -3.8954218399       -2.6485245913       -0.8618406087
 C         -3.3584739996       -3.8765644512       -0.5115847988
 C         -2.9141056890       -4.0929258310        0.7840954410
 C         -3.0042613788       -3.0896738110        1.7362090310
 C         -3.5404570792       -1.8591516311        1.3916814512
 H         -3.6248934790       -1.0501636511        2.1008275312
 H         -2.6561549484       -3.2587618709        2.7426929709
 H         -2.4934579587       -5.0485464909        1.0546649509
 H         -3.2857460997       -4.6603777712       -1.2483176588
 H         -4.2541279204       -2.4436176514       -1.8567111685
 H         -4.4148359212        0.6836953985       -2.4638109786
 H         -2.9993213119        2.4115646688       -3.2439730093
 H         -0.9346862520        3.7166467892       -2.9066583102
 H          0.5512391189        3.2249647795       -1.0012934907
 H         -0.1294951196        0.3488327995        1.3388117597
 C          0.0538570202        2.3871911796        1.9473085995
 C         -1.2701329695        2.5159867694        2.6378284200
 C         -0.0752625991        2.0179527796        3.3930532196
 H          0.3735859011        2.6645103997        4.1322260394
 H         -0.0329110388        0.9687882796        3.6468945996
 H         -1.6386590596        3.5067825593        2.8563429601
 H         -2.0487871495        1.8153328092        2.3728127004
 H          0.5850854300        3.2984623597        1.7056399893
