  62
        -98.93847283
 C          0.5052161414        1.9435414106        0.0170552301
 C          1.3665404208        1.3509352697        0.9733395901
 C          2.5339778902        0.6074066488        0.4665886401
 C          2.7290792903        0.5346849888       -0.8620280799
 C          3.8028088697       -0.2002545121       -1.6248769399
 C          5.2353730397       -0.1272407133       -1.0746501598
 C          5.7190256786       -1.4380571538       -0.4504128499
 H          5.3485204779       -2.2671298934       -1.0571457600
 H          6.8100980186       -1.4631642647       -0.4966048599
 C          5.3137989883       -1.6587043135        1.0058809200
 H          5.6035687075       -2.6763199138        1.2776422800
 H          5.8791916089       -0.9773189941        1.6452291201
 C          3.8243745885       -1.4768500323        1.3029974500
 H          3.2203837381       -1.9187830618        0.5101033499
 H          3.5980677180       -2.0253883922        2.2195972699
 C          3.4198736397       -0.0094630520        1.5143268701
 H          4.3129156402        0.6101263672        1.6315671302
 H          2.8593139297        0.0927238884        2.4486844101
 H          5.8961344800        0.1086180662       -1.9105692898
 H          5.3178841304        0.6897896066       -0.3599615998
 H          3.4930518588       -1.2449046718       -1.7215455700
 H          3.7705913501        0.2225147381       -2.6320772299
 O          1.8894120908        1.1389616095       -1.7484411299
 C          0.7590081214        1.8385549005       -1.3513717399
 O          0.1067190518        2.3068308011       -2.3041591399
 O          1.1626168408        1.4328708298        2.2149258701
 C         -0.7227554181        2.6460180215        0.5653491901
 C         -1.8982522589        1.6993199925        0.6637569599
 C         -2.7578287589        1.7492976031        1.7557967199
 C         -3.8311097096        0.8822785040        1.8487602798
 C         -4.0504292303       -0.0717382757        0.8709815797
 C         -3.1952479003       -0.1332487463       -0.2223799003
 C         -2.1421731796        0.7638776928       -0.3304744601
 H         -1.5054242396        0.7140658723       -1.1999534101
 N         -3.3628995311       -1.1115391161       -1.2214099004
 S         -2.0370823619       -2.0670880172       -1.5948653504
 O         -1.0674385812       -1.3218777679       -2.3545284503
 O         -2.6030990128       -3.2286714067       -2.2475315505
 C         -1.3710354623       -2.5240711879       -0.0057778204
 C         -0.3578715617       -1.7674952788        0.5461404097
 C          0.0857471579       -2.0692415293        1.8237446197
 C         -0.4828499830       -3.1245643988        2.5196134796
 C         -1.4915702036       -3.8849666080        1.9466428095
 C         -1.9486271333       -3.5781696575        0.6755749295
 H         -2.7286678537       -4.1433916868        0.1916660994
 H         -1.9262758143       -4.7089120176        2.4891257994
 H         -0.1345176232       -3.3540086792        3.5141786896
 H          0.8600604084       -1.4633287399        2.2659251598
 H          0.0691546790       -0.9555505791       -0.0221876002
 H         -4.1779195316       -1.6945673454       -1.0891117605
 H         -4.8740132209       -0.7645949950        0.9511817296
 H         -4.4924960796        0.9353181445        2.6996341197
 H         -2.5733701483        2.4671571729        2.5404083600
 H         -0.4554012579        2.9453488912        1.5885845101
 C         -1.1265433470        3.8878765719       -0.2051588498
 C         -1.8348041961        5.0008543125        0.5049317602
 C         -0.4159140959        5.1804170513        0.0571979203
 H         -0.2100661153        5.8308116312       -0.7793777596
 H          0.3604011140        5.1784983506        0.8085672804
 H         -2.6116355656        5.5322778032       -0.0227527798
 H         -2.0177924362        4.8895581325        1.5625466802
 H         -1.4129312071        3.6790777423       -1.2280125499
