  62
        -98.93276922
 C         -2.5419940507        0.3442160589       -0.2118498190
 C         -2.6290463228       -0.8388640924       -0.9826666419
 C         -2.3213820644       -2.1142739873       -0.3092635352
 C         -1.9497111113       -2.0859976247        0.9837333398
 C         -1.5289326070       -3.2357705786        1.8598024154
 C         -0.0921004568       -3.6929826208        1.5650840887
 C          0.2404066221       -3.8463563262        0.0834863109
 H          1.3022084569       -4.0980096216        0.0119817086
 H          0.1104468028       -2.8780718657       -0.4043895079
 C         -0.5459721208       -4.9233155284       -0.6612188894
 H         -0.3707393932       -5.8875790089       -0.1789281162
 H         -0.1368439912       -4.9786768178       -1.6732416508
 C         -2.0567783228       -4.7056546702       -0.7741398745
 H         -2.5621923999       -4.9653344007        0.1521156725
 H         -2.4278637464       -5.3986842029       -1.5349426308
 C         -2.4694861773       -3.3075971424       -1.2227482208
 H         -3.5282845467       -3.3309795847       -1.5085387200
 H         -1.9294476584       -3.0516190458       -2.1414990978
 H          0.0844706207       -4.6365163329        2.0851556852
 H          0.5893965234       -2.9413398232        1.9729972204
 H         -2.2278800808       -4.0613037251        1.7633062079
 H         -1.5734203913       -2.8767036687        2.8905912847
 O         -1.8650317556       -0.9224531400        1.6872396272
 C         -2.1075857305        0.3118741272        1.1152822275
 O         -1.9222462302        1.2715655953        1.8876632345
 O         -2.9343750873       -0.8342765086       -2.2078882874
 C         -2.7281126149        1.6720891321       -0.9311919958
 C         -1.4856289732        2.4893440256       -0.6842178900
 C         -1.4608266392        3.7322893880       -0.0680360882
 C         -0.2533981456        4.3407854041        0.2339929741
 C          0.9489361678        3.7202394296       -0.0549612813
 C          0.9302306682        2.4911584139       -0.6963207256
 C         -0.2745751206        1.8993242300       -1.0256013470
 H         -0.2777256630        0.9248838085       -1.5009061419
 N          2.1574708210        1.7958075939       -0.9285572617
 S          2.3929034689        0.6851240181        0.3358196348
 O          1.4701341304       -0.4232191281        0.2095980716
 O          2.3708389417        1.4172757934        1.5760614234
 C          4.0536637297        0.1289736756       -0.0039453999
 C          5.0944861644        1.0083561736        0.2247554762
 C          6.3879947894        0.6041822204       -0.0631743234
 C          6.6176701832       -0.6653108970       -0.5732239850
 C          5.5627973775       -1.5364217058       -0.7976743222
 C          4.2659513478       -1.1369860302       -0.5132276822
 H          3.4142344292       -1.7806521509       -0.6670149802
 H          5.7434792630       -2.5231354819       -1.1927782069
 H          7.6254112221       -0.9784756825       -0.7959803942
 H          7.2111264573        1.2782983722        0.1104660035
 H          4.8658658920        1.9804474260        0.6285587327
 H          2.0988808518        1.2474069803       -1.7791561986
 H          1.8925118223        4.1591364327        0.2243494455
 H         -0.2510889986        5.2993921095        0.7303235285
 H         -2.3867862799        4.2061786961        0.2149976569
 H         -2.7518623666        1.3962376331       -1.9993520023
 C         -4.0274835163        2.4053580456       -0.6483042111
 C         -5.2580291043        1.6527957265       -0.2405779499
 C         -4.5863611146        2.5734428795        0.7314350464
 H         -5.0759401275        3.5062774536        0.9709611641
 H         -4.0315496713        2.1471273988        1.5516471455
 H         -6.2066112131        1.9483422326       -0.6629197259
 H         -5.1592328277        0.5881590007       -0.0839775766
 H         -4.1772893497        3.2334235561       -1.3347024477
