  62
        -98.93443663
 C          1.9747981797        0.0203695303       -0.5779004905
 C          2.8032083297       -0.5710241897        0.4050484894
 C          4.1532511796        0.0095747703        0.5618921995
 C          4.5217358296        1.0602080104       -0.1926378503
 C          5.7987818396        1.8742712604       -0.2188042502
 C          7.0623477696        1.3705780404        0.4739674798
 C          7.6872577697        0.1278926005       -0.1594666504
 H          8.1001673297        0.4045878506       -1.1329309803
 H          8.5165240296       -0.1971348096        0.4726864296
 C          6.7389449797       -1.0481845695       -0.3788163905
 H          5.9601902497       -0.7632835395       -1.0893158505
 H          7.3123443597       -1.8581665195       -0.8379727406
 C          6.0814948297       -1.6017737997        0.8837765294
 H          6.8496451697       -1.8539122797        1.6173951494
 H          5.5665585897       -2.5259983497        0.6081131993
 C          5.0484669496       -0.6783609998        1.5523726195
 H          4.3967098096       -1.2976837299        2.1754884594
 H          5.5290921496        0.0473357301        2.2040047996
 H          7.7960667496        2.1786342304        0.4072138199
 H          6.8727586996        1.2056119403        1.5305122097
 H          6.0172616096        2.0493182506       -1.2772155502
 H          5.5367655596        2.8499445404        0.2055744399
 O          3.6727225696        1.6194803405       -1.1054730903
 C          2.4048368597        1.1180788104       -1.3254876004
 O          1.7617149597        1.7222762705       -2.2084478904
 H         -1.6444898703        0.8886259403       -1.6177665706
 C         -1.5389682104        0.8359209302       -0.5423828006
 C         -0.4415148304        0.1873403102        0.0042821694
 C         -0.3128324004        0.1447656300        1.3891625594
 C         -1.2598338804        0.7423951499        2.2007758094
 C         -2.3541750304        1.3882485099        1.6516453295
 C         -2.4919851004        1.4346949301        0.2713354495
 N         -3.6243054204        2.0642866901       -0.2878515805
 S         -5.1001186604        1.3790536500        0.1263829594
 O         -6.0333818904        1.8301861001       -0.8803277106
 O         -5.4148316204        1.7214835898        1.4894077694
 C         -4.8124299203       -0.3745554100       -0.0203614508
 C         -4.4371515803       -1.0991449001        1.0930399491
 C         -4.1137114303       -2.4380995300        0.9416258590
 C         -4.1702688902       -3.0259979999       -0.3122061411
 C         -4.5571540802       -2.2864233798       -1.4195728110
 C         -4.8748506703       -0.9456029598       -1.2761800309
 H         -5.1814354703       -0.3366247797       -2.1118182008
 H         -4.6027580402       -2.7478550397       -2.3930467911
 H         -3.9078168002       -4.0653472699       -0.4278984512
 H         -3.8121168303       -3.0161994901        1.8001124989
 H         -4.4086782904       -0.6071153002        2.0511335692
 H         -3.5662544204        2.1664536502       -1.2914166305
 H         -3.1074480405        1.8501349298        2.2694424495
 H         -1.1462256105        0.7038711998        3.2736326194
 H          0.5337321596       -0.3684847600        1.8188947694
 C          0.5719895997       -0.4707085197       -0.8952569706
 H          0.3774615797       -0.1213094796       -1.9215565706
 C          0.4553815798       -1.9902499497       -0.9040968608
 C         -0.4030091203       -2.7637145598        0.0473191691
 C         -0.8133615302       -2.6297239997       -1.3859101309
 H         -0.7462277702       -3.4915700796       -2.0319320310
 H         -1.6441044402       -1.9750927197       -1.6044186909
 H         -0.0260359502       -3.7129375898        0.3954894990
 H         -0.9668682803       -2.2198902299        0.7884792091
 H          1.3829375598       -2.4648655496       -1.2057206408
 O          2.4550413997       -1.5342647398        1.1333581693
