  62
        -98.93809903
 C          1.7888856702        0.3484009223       -0.8262266998
 C          2.9281585801       -0.4584381176       -1.0726653105
 C          4.2269210001        0.1470902518       -0.7274778897
 C          4.2696914303        1.3866263712       -0.2092427684
 C          5.5172809603        2.0877801005        0.2428903126
 C          5.8017818801        1.8169124789        1.7269627523
 C          5.7370961298        0.3382910185        2.1096468907
 H          5.9834019496        0.2660718373        3.1712818607
 H          4.7098210497       -0.0150279912        1.9938813902
 C          6.6784262397       -0.5680195608        1.3040624299
 H          7.4519406899        0.0333941195        0.8250711207
 H          7.1796870195       -1.2522750616        1.9919887693
 C          5.9810707797       -1.4287714096        0.2491341289
 H          5.1457200595       -1.9644653299        0.7071453282
 H          6.6944535396       -2.1780656993       -0.1045067818
 C          5.4561684400       -0.6796766982       -0.9820984504
 H          6.2528789002       -0.0653340779       -1.4063604696
 H          5.1649569300       -1.4277680574       -1.7253873312
 H          6.7901370901        2.2134492985        1.9666033729
 H          5.0643110601        2.3570963484        2.3250755128
 H          6.3558878404        1.7539484710       -0.3651527077
 H          5.3799358206        3.1607428607        0.0986058937
 O          3.1564656504        2.1329839112        0.0077653823
 C          1.9001251303        1.6331220817       -0.2862741284
 O          0.9661043704        2.4214176416       -0.0354972477
 O          2.8907936699       -1.6210196871       -1.5486924717
 C          0.3666192901       -0.1039397471       -1.1108328905
 C         -0.2352126402       -0.8352671883        0.0615760086
 C          0.4844130996       -1.7791098291        0.7863253878
 C         -0.1044428507       -2.4459634002        1.8452538170
 C         -1.4257657407       -2.2086583103        2.1813860170
 C         -2.1559795804       -1.2731820694        1.4589596579
 C         -1.5498038902       -0.5786868884        0.4218352887
 H         -2.1137732000        0.1693611923       -0.1137224006
 N         -3.5019703504       -1.0120979094        1.7549237580
 S         -4.5904624302       -0.8910568779        0.4829482180
 O         -5.8670816204       -1.2552663383        1.0583600174
 O         -4.1540917602       -1.6678958768       -0.6526754928
 C         -4.6156943799        0.8406788125        0.0755276698
 C         -4.3236513796        1.2461288438       -1.2115731798
 C         -4.3650060493        2.5979947242       -1.5141699983
 C         -4.6986706293        3.5150729232       -0.5296619774
 C         -4.9932374695        3.0911527019        0.7575601621
 C         -4.9530738898        1.7412456015        1.0664061907
 H         -5.1802878900        1.3725530806        2.0527461003
 H         -5.2521184595        3.8086855311        1.5194005128
 H         -4.7288168191        4.5665293434       -0.7682020963
 H         -4.1347868791        2.9287682052       -2.5143141380
 H         -4.0654432196        0.5006792146       -1.9477730805
 H         -3.8802834006       -1.5589804302        2.5149120774
 H         -1.8890126209       -2.7437746710        2.9966192864
 H          0.4664182991       -3.1721906809        2.4044131463
 H          1.5043454796       -1.9935507590        0.5053884877
 H         -0.2102543497        0.8257880231       -1.2427643796
 C          0.2348237102       -0.8963767357       -2.4049225314
 C          0.0543334799       -2.3801650457       -2.4533503929
 C         -1.0858610799       -1.4793196551       -2.8155723822
 H         -1.3766351797       -1.4081830639       -3.8532286221
 H         -1.9132832600       -1.4214467156       -2.1226315122
 H          0.5659632099       -2.9227501349       -3.2334626934
 H          0.0009483097       -2.9163523266       -1.5188349435
 H          0.8370983904       -0.4642417950       -3.1983149908
