  62
        -98.93910066
 C          2.5199407846        1.2194659792        0.3299783817
 C          2.5038750609        0.3907677700       -0.8149671880
 C          3.2117305412       -0.9021261179       -0.7108792935
 C          3.8249453944       -1.2151186072        0.4456733722
 C          4.5674788876       -2.4769682228        0.7971415701
 C          3.6245796512       -3.6540016665        1.0947190637
 C          2.4626790430       -3.8107895110        0.1166318153
 H          1.8133414766       -4.6053528300        0.4947940684
 H          1.8687774801       -2.8938739000        0.1070086436
 C          2.8590452096       -4.1727447102       -1.3129466649
 H          3.4140334855       -5.1135141645       -1.3027397003
 H          1.9332994078       -4.3378388375       -1.8705697847
 C          3.6858648626       -3.1271548524       -2.0645388734
 H          4.7253057773       -3.1463005404       -1.7482079266
 H          3.6773523928       -3.4066568093       -3.1220206649
 C          3.1361545455       -1.7063526054       -1.9860394419
 H          3.6341188150       -1.0961185502       -2.7491959578
 H          2.0770829879       -1.7152138539       -2.2709216247
 H          3.2015142927       -3.5056648255        2.0914557241
 H          4.2133128462       -4.5726050307        1.1117161407
 H          5.2671803283       -2.7311471801        0.0068356437
 H          5.1459314895       -2.2595229915        1.6977655392
 O          3.8067134389       -0.3840230971        1.5281937005
 C          3.1509703944        0.8313947909        1.5095931207
 O          3.1954711470        1.4620420167        2.5864964260
 H          0.2287143183        0.7807821215        1.5268073636
 C         -0.3271268498        1.3196755822        0.7676487445
 C          0.3219625155        2.3011572446        0.0279465656
 C         -0.4015417121        2.9857001997       -0.9386794525
 C         -1.7311819160        2.6748344885       -1.1684033400
 C         -2.3677551391        1.6870989060       -0.4399408402
 C         -1.6560274925        1.0038142874        0.5377736537
 N         -2.2977131671        0.0005967715        1.2919575808
 S         -2.9655265189       -1.2803431539        0.4284696920
 O         -3.0026098232       -2.3859167326        1.3617904158
 O         -2.2621588979       -1.5108187117       -0.8123856566
 C         -4.6299376864       -0.7391162835        0.1035346697
 C         -5.4215918483       -0.3930687440        1.1813245801
 C         -6.7205618612        0.0293287052        0.9484009574
 C         -7.2037585844        0.0951721633       -0.3502274132
 C         -6.3972334870       -0.2589403195       -1.4209841936
 C         -5.0960991289       -0.6812093886       -1.1950838188
 H         -4.4293193402       -0.9595343615       -1.9956409093
 H         -6.7745917853       -0.2074165675       -2.4296400816
 H         -8.2150444033        0.4247605066       -0.5289224394
 H         -7.3504843139        0.3063733737        1.7782421737
 H         -5.0073076260       -0.4618763062        2.1732776651
 H         -1.7221048417       -0.3601536721        2.0400917811
 H         -3.4003577930        1.4375733280       -0.6219512266
 H         -2.2787623907        3.2082975967       -1.9302542976
 H          0.0789251371        3.7527120524       -1.5232245231
 C          1.7835577687        2.5474873549        0.3160262935
 H          1.8684783885        2.9521834961        1.3353226141
 C          2.4426693197        3.5100951548       -0.6485442226
 C          2.3477092040        4.9878926638       -0.4199246217
 C          3.6467877178        4.2763689673       -0.1932292341
 H          4.4528985042        4.4336793028       -0.8939398532
 H          3.9775802900        4.1203366019        0.8235519693
 H          2.2650093128        5.6383136455       -1.2774476695
 H          1.7981671895        5.3252376014        0.4457474295
 H          2.4380931131        3.1443654333       -1.6687446955
 O          1.9200065890        0.7053816882       -1.8848845367
