  62
        -98.93739425
 C         -2.2052622026       -1.2974112902       -0.1210873459
 C         -2.6226205731       -0.1756747982       -0.8749365543
 C         -4.0012804574        0.2882379708       -0.6391972883
 C         -4.7806453879       -0.3680214456        0.2370968429
 C         -6.2191260667       -0.0941749288        0.5979454307
 C         -6.6227530929        1.3690794789        0.8299702524
 C         -5.5196136829        2.2647780959        1.4124722014
 H         -5.9173340784        2.7998815494        2.2768551295
 H         -4.6857274993        1.6543673126        1.7633127347
 C         -5.0049610131        3.3048382555        0.4141243025
 H         -5.8587037192        3.7343645458       -0.1147507694
 H         -4.5228564509        4.1143727597        0.9675133886
 C         -3.9911346925        2.7909991617       -0.6077592369
 H         -3.0402612499        2.5753709980       -0.1119880742
 H         -3.8008261710        3.5931658348       -1.3250814633
 C         -4.4104272137        1.5288350177       -1.3791827344
 H         -5.4753017985        1.5361509761       -1.5988891626
 H         -3.8586596096        1.5142881703       -2.3230582147
 H         -6.9727306280        1.8031998794       -0.1056166368
 H         -7.4771343895        1.3567518757        1.5087971504
 H         -6.8537372716       -0.5202383414       -0.1844493944
 H         -6.3982262726       -0.6719254242        1.5077851374
 O         -4.3402854422       -1.4564987660        0.9298494974
 C         -3.0503126279       -1.9355040866        0.7855278935
 O         -2.7803592378       -2.9169342487        1.5069648585
 H          1.1789134732       -0.6183562761       -1.7848640795
 C          1.1202192034       -0.2331633187       -0.7793860705
 C          0.1849629290       -0.7434456011        0.1055501692
 C          0.1365124697       -0.2222082532        1.3963778552
 C          0.9858743573        0.7968952186        1.7812298934
 C          1.9044254911        1.3199800143        0.8873418019
 C          1.9674686769        0.8008962017       -0.3982314456
 N          2.9006642662        1.3210099339       -1.3078151406
 S          4.4545786940        1.6272913433       -0.7762305449
 O          4.4951538918        2.8849922252       -0.0724637628
 O          5.2819194729        1.5392842439       -1.9588764451
 C          4.8293923988        0.2940719986        0.3494796288
 C          4.7991842435       -0.9977398633       -0.1378920416
 C          5.0570003418       -2.0471710170        0.7285925869
 C          5.3385959311       -1.7887346687        2.0615855728
 C          5.3698737021       -0.4863004298        2.5344181828
 C          5.1112374660        0.5673615942        1.6721894303
 H          5.1234818053        1.5944958566        1.9988238566
 H          5.5910996758       -0.2881528426        3.5708336272
 H          5.5355215938       -2.6081790798        2.7347163582
 H          5.0348117014       -3.0613227936        0.3631701883
 H          4.5837304434       -1.1652944965       -1.1808077168
 H          2.8894955904        0.8807423753       -2.2153734006
 H          2.5593698800        2.1306083335        1.1624431432
 H          0.9306895685        1.1936148726        2.7836844460
 H         -0.5879394541       -0.6251120892        2.0915494972
 C         -0.7910506054       -1.8330262733       -0.2657650119
 H         -0.6976595865       -2.6412158811        0.4731432345
 C         -0.5790686268       -2.4106737410       -1.6488759903
 C          0.4993746829       -3.4261211724       -1.8763815042
 C         -0.9400886202       -3.8426507507       -1.8991046799
 H         -1.3886829778       -4.1027507200       -2.8462127423
 H         -1.3247382206       -4.4109681265       -1.0647542850
 H          1.0960220780       -3.7176368337       -1.0255134729
 H          1.0399195600       -3.4068061267       -2.8107941456
 H         -0.7915475571       -1.6997807893       -2.4389780294
 O         -1.8892599324        0.4091662683       -1.7138849846
