  62
        -98.94568909
 C         -2.4297293666       -0.8646410278        0.1616404713
 C         -1.9579543539        0.0211172280       -0.8374912110
 C         -2.4025579657        1.4147156224       -0.7094093362
 C         -3.2150251103        1.7699716420        0.3025499011
 C         -3.7653158717        3.1480325837        0.5533396923
 C         -2.8108210637        4.0699860171        1.3250472423
 C         -1.6020980992        4.5680667534        0.5313278572
 H         -1.9422743047        5.0095170428       -0.4057461583
 H         -1.1403563778        5.3643020352        1.1185217194
 C         -0.5463379482        3.4911508775        0.2419912542
 H          0.4479285082        3.8853721028        0.4629914815
 H         -0.7052494258        2.6390616271        0.9074172678
 C         -0.5282019898        2.9937923890       -1.2033302357
 H         -0.2432743011        3.8118542746       -1.8677010417
 H          0.2286298740        2.2097635545       -1.2863899894
 C         -1.8634460732        2.4142180068       -1.6872535464
 H         -2.5853481234        3.2129993352       -1.8547959975
 H         -1.6880511756        1.8932808283       -2.6312984570
 H         -2.4684073749        3.5470414504        2.2213588990
 H         -3.3885641964        4.9385675038        1.6494198557
 H         -4.0354055745        3.6133272840       -0.3948661175
 H         -4.6724026434        3.0174801149        1.1475073149
 O         -3.6542573579        0.8837345729        1.2366800367
 C         -3.2594215990       -0.4449586131        1.2002280795
 O         -3.7039927572       -1.1397507464        2.1376719728
 H         -0.2383827695       -0.8820516263        1.4798391534
 C          0.2489543144       -1.6416776091        0.8803097401
 C         -0.5281541358       -2.4810014767        0.0921059969
 C          0.1118855635       -3.4535995190       -0.6658399422
 C          1.4898595774       -3.5775639383       -0.6289541064
 C          2.2590915085       -2.7403936029        0.1575073325
 C          1.6316726761       -1.7561253287        0.9117355051
 N          2.3862450458       -0.9049148641        1.7352396684
 S          3.8305671315       -0.2243996372        1.2462709777
 O          4.7936124184       -1.2709052038        1.0118853945
 O          4.1551299638        0.7239206561        2.2869730905
 C          3.5016052815        0.6465983878       -0.2743412465
 C          3.2144691236        1.9957412068       -0.2087316263
 C          2.9515128698        2.6843036811       -1.3815361377
 C          2.9660465896        2.0117077499       -2.5940304189
 C          3.2506669476        0.6562078364       -2.6427937755
 C          3.5260129544       -0.0359227098       -1.4741669197
 H          3.7650829173       -1.0860440781       -1.4798099342
 H          3.2590008107        0.1346225796       -3.5862416983
 H          2.7536863688        2.5473743847       -3.5056688711
 H          2.7328904644        3.7395182675       -1.3471395959
 H          3.2183205368        2.4803346086        0.7545204232
 H          1.8344317024       -0.2312793068        2.2442971657
 H          3.3313774095       -2.8384194737        0.2066415773
 H          1.9729499761       -4.3416840548       -1.2189080481
 H         -0.4687326348       -4.1176772021       -1.2845951067
 C         -2.0303182165       -2.3269552314        0.1186875025
 H         -2.3993731623       -2.7731633512        1.0545826113
 C         -2.7198696101       -3.0074371156       -1.0476584856
 C         -3.1398509569       -4.4426591155       -0.9534929433
 C         -4.1713510866       -3.3563602407       -0.9208812918
 H         -4.8119359302       -3.2234694389       -1.7797916138
 H         -4.6526563836       -3.1326265722        0.0204522237
 H         -3.0761508957       -5.0584270994       -1.8381143786
 H         -2.9303854888       -4.9673999106       -0.0334739680
 H         -2.3773405291       -2.6337486843       -2.0058507034
 O         -1.2052952050       -0.3293409456       -1.7819841951
