  62
        -98.93583955
 C         -2.3868513089       -0.7033660009        0.2280141108
 C         -2.5403091241        0.7071744047        0.2298119058
 C         -3.7854422769        1.2338694698       -0.3432404771
 C         -4.6893890201        0.3732914191       -0.8453323426
 C         -6.0219119322        0.7612337331       -1.4166059012
 C         -7.1134217871        0.7525362396       -0.3373790597
 C         -6.7299785385        1.5100195157        0.9337886342
 H         -7.5855707462        1.4642523211        1.6109938591
 H         -5.9039806827        0.9893235060        1.4237934981
 C         -6.3372193993        2.9761868120        0.7045859173
 H         -6.6984842040        3.3090584799       -0.2690150698
 H         -6.8275816774        3.5926251119        1.4608882114
 C         -4.8364000456        3.2546904744        0.8090905847
 H         -4.4495547137        2.8387610261        1.7430037587
 H         -4.6929737711        4.3378069811        0.8504337829
 C         -3.9763212672        2.7245725074       -0.3453626448
 H         -4.3936927768        3.0577397588       -1.2979664030
 H         -2.9755549446        3.1541825398       -0.2397868726
 H         -8.0212376422        1.1854865577       -0.7612140926
 H         -7.3245768797       -0.2845654636       -0.0671539056
 H         -5.9444717575        1.7508105312       -1.8626749954
 H         -6.2852581907        0.0411697268       -2.1930755230
 O         -4.5048003240       -0.9690884976       -0.8454151064
 C         -3.3587153489       -1.5487389788       -0.3105382292
 O         -3.3509122228       -2.7898555725       -0.3873821146
 H          1.4632941639       -0.4232770274        0.9682955396
 C          1.2507544553       -0.9370771842        0.0429181970
 C         -0.0280833375       -1.4141967529       -0.2068516048
 C         -0.2822633572       -2.0518722129       -1.4171265308
 C          0.7245239644       -2.2008663862       -2.3532103772
 C          1.9973052879       -1.7202292435       -2.1025645009
 C          2.2651007381       -1.0885632167       -0.8929710722
 N          3.5657829538       -0.6459939054       -0.6010424736
 S          3.8041235376        0.7198738469        0.3606483854
 O          3.5375335683        0.3720686140        1.7334138681
 O          3.0738277949        1.8457695428       -0.1772311483
 C          5.5571040903        0.9486980940        0.1302778293
 C          6.0106810361        1.9068509837       -0.7561498044
 C          7.3763352660        2.0539810037       -0.9433669471
 C          8.2597235592        1.2427348656       -0.2473255990
 C          7.7892894500        0.2853665404        0.6394634181
 C          6.4255019564        0.1343249329        0.8326917572
 H          6.0142522296       -0.5886131816        1.5176391839
 H          8.4792961869       -0.3419072496        1.1804249614
 H          9.3217936813        1.3594816998       -0.3945597701
 H          7.7448817336        2.7996981456       -1.6292306580
 H          5.2867368982        2.5198094473       -1.2689106560
 H          4.1597520561       -0.6204428642       -1.4190588160
 H          2.7802385027       -1.8366666977       -2.8363996875
 H          0.5144072494       -2.6948170514       -3.2900133805
 H         -1.2729426537       -2.4339800387       -1.6115754709
 C         -1.1061126993       -1.2470367572        0.8345312245
 H         -0.7656917083       -0.4584497950        1.5260519568
 C         -1.3181177236       -2.5097720831        1.6596393856
 C         -0.8234755710       -3.8597957582        1.2455218814
 C         -0.1593426528       -3.1375628132        2.3765984069
 H         -0.3085422681       -3.4977884528        3.3832565437
 H          0.8193716211       -2.7163025804        2.1988115623
 H         -0.2929743724       -3.9428439222        0.3103889119
 H         -1.4516604710       -4.7091281711        1.4654281189
 H         -2.2645630114       -2.4887746498        2.1907747778
 O         -1.6717091286        1.4925865563        0.7003342434
