  62
        -98.94017030
 C          2.4530131108        0.9750444803       -0.0337297631
 C          2.5583747006       -0.4085196020        0.2474775052
 C          3.8975662752       -0.8791242687        0.6242939895
 C          4.9161485576       -0.0043200422        0.7096840143
 C          6.3319519310       -0.3292838630        1.1022879058
 C          7.1965071964       -0.8487398951       -0.0546953703
 C          6.8787805029       -2.2715149577       -0.5164524390
 H          7.6930249277       -2.5842563206       -1.1730729985
 H          6.8793517680       -2.9406922949        0.3444228173
 C          5.5521994065       -2.4093592807       -1.2766275759
 H          5.2184969401       -1.4240866815       -1.6105057085
 H          5.7066663504       -3.0146416624       -2.1727713268
 C          4.4276715270       -3.0655130772       -0.4753255131
 H          4.6938223490       -4.1005000733       -0.2494781723
 H          3.5266687577       -3.0767810739       -1.0942143012
 C          4.0891178464       -2.3501057528        0.8390801235
 H          3.1468662421       -2.7541693841        1.2174214887
 H          4.8699519327       -2.5298093936        1.5776649614
 H          8.2363968854       -0.8219309597        0.2788299187
 H          7.1001521076       -0.1616278343       -0.8984776706
 H          6.3288872897       -1.0591263741        1.9122397612
 H          6.7726769924        0.5992001093        1.4713246945
 O          4.7644532490        1.3241918829        0.4602235342
 C          3.5407573136        1.8418595504        0.0683166499
 O          3.5473793680        3.0713991879       -0.1459987615
 O          1.5900110958       -1.2103255168        0.1906648218
 C          1.1189253719        1.5606236569       -0.4599001411
 C          0.0737376086        1.2818459549        0.5928121748
 C          0.3334504651        1.6592472800        1.9084226248
 C         -0.5931025577        1.4263787229        2.9054857519
 C         -1.8021880057        0.8201420868        2.6118467487
 C         -2.0700252506        0.4371152121        1.3033197039
 C         -1.1369060921        0.6747920085        0.3028900974
 H         -1.3731736913        0.3701481080       -0.7023838990
 N         -3.2730113561       -0.2127708176        0.9841883597
 S         -3.9753606414        0.0435724521       -0.5271222498
 O         -3.3153347488       -0.7829274232       -1.5056533596
 O         -4.0279810502        1.4593808461       -0.8168859453
 C         -5.6150427186       -0.5881263234       -0.2216799126
 C         -5.8025627932       -1.9577370116       -0.2251309117
 C         -7.0665271656       -2.4613976031        0.0370498908
 C         -8.1162169014       -1.5923729077        0.2968074402
 C         -7.9132081656       -0.2206173872        0.2949930494
 C         -6.6509619688        0.2899201308        0.0347253183
 H         -6.4476187045        1.3485390564        0.0147773584
 H         -8.7320430840        0.4519771839        0.4934252380
 H         -9.0994649275       -1.9871805219        0.4983416732
 H         -7.2286229999       -3.5272551343        0.0369919115
 H         -4.9587960970       -2.5926161912       -0.4406247976
 H         -3.9563447511       -0.1634273451        1.7272900693
 H         -2.5264951076        0.6364606479        3.3908441940
 H         -0.3757976191        1.7233518389        3.9206513352
 H          1.2779119969        2.1359365652        2.1358562817
 H          1.2652820556        2.6498235476       -0.5134060144
 C          0.7404133475        1.0540593240       -1.8356678070
 C         -0.1771832892        1.8573672064       -2.7058585617
 C          1.2780765950        1.7508756347       -3.0475731860
 H          1.5656854897        1.1546380335       -3.9005054988
 H          1.9064721089        2.6145671647       -2.8845562763
 H         -0.8958770518        1.3325307435       -3.3178706246
 H         -0.5428530593        2.7948258683       -2.3140133330
 H          0.6593257471       -0.0268112554       -1.8754994709
