  62
        -98.94850762
 C          1.2380854505        1.5148944969        0.4987966545
 C          2.1765269734        1.2039829486       -0.5143409264
 C          3.2308064349        0.2517694178       -0.1386317716
 C          3.2500073167       -0.2576029683        1.1063085183
 C          4.2361921572       -1.2741747244        1.6025333743
 C          3.7082617194       -2.7026197825        1.4112050550
 C          3.1726731293       -2.9873049959        0.0074897960
 H          2.8747368807       -4.0384007718       -0.0160232217
 H          2.2609195368       -2.4058632045       -0.1543868211
 C          4.1727677788       -2.7147556900       -1.1249334831
 H          4.1255823268       -3.5434821592       -1.8346967629
 H          5.1867891560       -2.6884825430       -0.7233961883
 C          3.9076703982       -1.4345135859       -1.9195693848
 H          4.5161340709       -1.4665175882       -2.8275180168
 H          2.8587495666       -1.4085826042       -2.2276266303
 C          4.2302455283       -0.1207859757       -1.1963877443
 H          5.2389119127       -0.1659060322       -0.7809368669
 H          4.1967385847        0.6836649200       -1.9370114970
 H          2.8944226600       -2.8716221126        2.1204746700
 H          4.5141196048       -3.4018691865        1.6436636206
 H          5.1774460832       -1.1493933728        1.0706911970
 H          4.4041220540       -1.0996558129        2.6668986854
 O          2.3359200841        0.0701280654        2.0546799239
 C          1.2887123678        0.9289622694        1.7625324232
 O          0.4798759247        1.0928924929        2.7000640474
 H         -0.4150584766       -0.1581080652       -0.2085156821
 C         -0.9467495423        0.4498221985       -0.9233543683
 C         -0.7896917248        1.8278372077       -0.8993352256
 C         -1.4603868135        2.5846250522       -1.8523602421
 C         -2.2515988760        1.9651741666       -2.8047685457
 C         -2.4108450066        0.5908450580       -2.8178121476
 C         -1.7477956128       -0.1738298292       -1.8650973796
 N         -1.8693973450       -1.5712026527       -1.8286793099
 S         -1.8800507911       -2.3539864809       -0.3500088656
 O         -0.5549784355       -2.3875484786        0.2153811279
 O         -2.4751754434       -3.6422118108       -0.6365707474
 C         -2.9937396871       -1.3912615493        0.6580459163
 C         -4.3368355250       -1.4470886022        0.3355197695
 C         -5.2351896025       -0.6745695415        1.0516555857
 C         -4.7772004634        0.1451064781        2.0726484642
 C         -3.4287991914        0.1852673960        2.3887576021
 C         -2.5246319487       -0.5894007594        1.6777305408
 H         -1.4712577196       -0.5668856591        1.9110074607
 H         -3.0614040082        0.8180108761        3.1811968294
 H         -5.4736571433        0.7534916846        2.6276945176
 H         -6.2854973636       -0.7099912422        0.8114569814
 H         -4.6536616418       -2.1058294289       -0.4566486626
 H         -2.5438730332       -1.9609371336       -2.4702026223
 H         -3.0299644808        0.1123934617       -3.5608631449
 H         -2.7587519070        2.5634078262       -3.5463083793
 H         -1.3563822840        3.6573523250       -1.8544452236
 C          0.0683980379        2.4297240625        0.1891025656
 H         -0.5382134699        2.4681183859        1.1069669211
 C          0.5508521103        3.8290266645       -0.1340234889
 C         -0.2744160521        5.0213932010        0.2437102416
 C          0.9883867273        4.7174015000        0.9905113736
 H          1.8468584499        5.3546878122        0.8409091171
 H          0.9097170004        4.3207990526        1.9926667841
 H         -0.2815351685        5.8737665198       -0.4188268559
 H         -1.2126888401        4.8430932620        0.7470218869
 H          1.1216091916        3.8684006171       -1.0543424745
 O          2.1350060220        1.6910404365       -1.6744822957
