  62
        -98.94781035
 C         -1.0707027147       -1.1983470655        0.0040133602
 C         -1.5668051022       -0.2248296586        0.9025110939
 C         -2.4636850759        0.7820549468        0.3255295544
 C         -2.7452130332        0.7493499411       -0.9897342584
 C         -3.6105313627        1.7312279969       -1.7324460306
 C         -5.1133530388        1.4291952169       -1.6529597546
 C         -5.7636478912        1.7145299990       -0.2985766950
 H         -5.5216770617        2.7318918296        0.0106379296
 H         -6.8443251675        1.6669859887       -0.4464228371
 C         -5.3726713754        0.7288714041        0.8112984683
 H         -4.9383479385       -0.1681843797        0.3640442124
 H         -6.2684746503        0.4160015077        1.3522394674
 C         -4.3938971412        1.2911125931        1.8418646413
 H         -4.1608709069        0.5004199457        2.5592743037
 H         -4.8659235289        2.1122161930        2.3857607559
 C         -3.0720884533        1.7955398696        1.2477883305
 H         -3.2277256861        2.7397529345        0.7254622384
 H         -2.3695627009        1.9628599084        2.0682139261
 H         -5.6086454376        2.0447646679       -2.4074822251
 H         -5.2725707953        0.3822728354       -1.9215564824
 H         -3.4178433806        2.7394439557       -1.3634932975
 H         -3.3015232195        1.6843429973       -2.7792161913
 O         -2.2448045558       -0.2004686847       -1.8233667805
 C         -1.3968871857       -1.1938282890       -1.3524931451
 O         -1.0133552614       -1.9959969896       -2.2255000284
 O         -1.2657334872       -0.1916162914        2.1261025377
 C         -0.1029025966       -2.2423585300        0.5218879153
 C          1.2508933579       -2.1215437649       -0.1384947622
 C          2.1284048335       -3.1964711071       -0.2323258757
 C          3.3736064489       -3.0355824697       -0.8140052965
 C          3.7789413273       -1.8059122451       -1.3010387309
 C          2.9095871827       -0.7246770805       -1.2119313265
 C          1.6629827164       -0.8915816157       -0.6299329763
 H          0.9888300576       -0.0508903249       -0.5943811338
 N          3.2703973043        0.5337564170       -1.7069599994
 S          2.5853232550        1.9377509740       -1.1301956151
 O          1.2234509754        2.0691212489       -1.5872683326
 O          3.4983208474        2.9731631404       -1.5673552769
 C          2.6396548010        1.8005640058        0.6471429599
 C          3.8748482028        1.6804646857        1.2539109877
 C          3.9337222055        1.5371713109        2.6302449029
 C          2.7625084461        1.5081586570        3.3727185069
 C          1.5309328032        1.6376527421        2.7504088868
 C          1.4681519790        1.7901925508        1.3748010361
 H          0.5243087463        1.8860696039        0.8598719478
 H          0.6136136059        1.5960315823        3.3158212542
 H          2.8074741257        1.3843638675        4.4432264984
 H          4.8896308901        1.4416150250        3.1194468292
 H          4.7641845816        1.7106352024        0.6459613929
 H          4.2321544415        0.6426816076       -1.9888521448
 H          4.7491876623       -1.6834199752       -1.7567272209
 H          4.0415919862       -3.8802604666       -0.8863801414
 H          1.8318616326       -4.1618661991        0.1441943069
 H          0.0259695821       -2.0128333088        1.5915066453
 C         -0.6934433541       -3.6334421167        0.3930571142
 C         -0.4457710668       -4.6713637182        1.4457261980
 C         -1.7973379356       -4.0370068319        1.3231509288
 H         -2.6144052154       -4.6236843885        0.9308619035
 H         -2.0963505112       -3.3203543566        2.0743240915
 H         -0.3355101141       -5.7003001897        1.1377506338
 H          0.1639120175       -4.3931754026        2.2921125301
 H         -0.7675293714       -3.9565345146       -0.6392689165
