  62
        -98.94467151
 C         -1.9964952681       -0.7649778838        0.5673448523
 C         -1.9779571308       -0.0700170635       -0.6658018122
 C         -2.0687148846        1.3911268262       -0.5743057257
 C         -2.0982442633        1.9850408895        0.6320473869
 C         -2.1413936663        3.4674379048        0.8885544481
 C         -3.5496901080        4.0753076811        0.8267204720
 C         -4.1500458612        4.1865256103       -0.5752706064
 H         -5.0350319149        4.8207119400       -0.4947917104
 H         -3.4426208444        4.6942213357       -1.2314608529
 C         -4.5591653415        2.8440631394       -1.1970015684
 H         -4.6216089795        2.0844631942       -0.4144578741
 H         -5.5546469359        2.9345832829       -1.6371592487
 C         -3.6213625536        2.3434070722       -2.2955953967
 H         -3.9837947385        1.3716343196       -2.6398304304
 H         -3.6468471913        3.0326907346       -3.1423828832
 C         -2.1631051859        2.1721994930       -1.8496521625
 H         -1.6842187094        3.1445900685       -1.7349451639
 H         -1.6268034096        1.6098231836       -2.6180346922
 H         -4.2122084048        3.4828044010        1.4617531421
 H         -3.4888088787        5.0789210429        1.2538673833
 H         -1.4885152107        3.9767192658        0.1787825270
 H         -1.7425342417        3.6182299055        1.8942906487
 O         -2.0727690995        1.2824117509        1.7973939656
 C         -2.0278973527       -0.1023821403        1.7925274655
 O         -2.0226632255       -0.6210899339        2.9295025272
 O         -1.8935934278       -0.6399091026       -1.7854549094
 C         -1.8726831545       -2.2780730336        0.5792879921
 C         -0.5849064840       -2.6694539244       -0.1058904776
 C         -0.4857008620       -3.7030107321       -1.0277993388
 C          0.7234079569       -3.9730258765       -1.6459620775
 C          1.8475562902       -3.2178185473       -1.3690939971
 C          1.7628503561       -2.1951511168       -0.4299385301
 C          0.5590671260       -1.9452151928        0.2054571397
 H          0.5039573597       -1.1467843179        0.9325700356
 N          2.8903337641       -1.4222460832       -0.0994419198
 S          2.6578775646        0.1926348297        0.3358106315
 O          2.2965912568        0.2499741148        1.7314121169
 O          1.7609915286        0.8467434464       -0.5901881766
 C          4.3200358274        0.8060286387        0.1275561481
 C          5.2467019886        0.5526804196        1.1214012108
 C          6.5498154172        0.9919905585        0.9503255192
 C          6.9030968394        1.6727630089       -0.2055087925
 C          5.9618575570        1.9219139489       -1.1929283744
 C          4.6568947808        1.4836871498       -1.0287740490
 H          3.8888232023        1.6591792539       -1.7650490130
 H          6.2381477878        2.4544060264       -2.0886711359
 H          7.9178038912        2.0139400203       -0.3361311087
 H          7.2831852303        0.8024324651        1.7173439389
 H          4.9216162268        0.0284388934        2.0049288532
 H          3.6403474498       -1.5184723901       -0.7708419901
 H          2.7823462372       -3.4139622842       -1.8717378286
 H          0.7859498690       -4.7730725530       -2.3679585256
 H         -1.3574685528       -4.2868011280       -1.2739883151
 H         -1.8029333908       -2.5713539767        1.6376549817
 C         -3.1023510687       -2.9189716759       -0.0294630660
 C         -3.5510274463       -4.2755561390        0.4219226796
 C         -4.3347401259       -3.0591490709        0.8108092855
 H         -5.2958779877       -2.8919753173        0.3484189795
 H         -4.2762699887       -2.7148461637        1.8334322657
 H         -3.9793170990       -4.9461828146       -0.3076121895
 H         -2.9674149963       -4.7660388573        1.1862571347
 H         -3.2339823058       -2.6528767261       -1.0719358273
