  62
        -98.93278325
 C          2.4707864196        1.0808604803        0.3212626986
 C          2.5529920400       -0.1426416496        1.0354985589
 C          3.7487101302       -0.9710367093        0.8105238489
 C          4.6958346100       -0.5372625392       -0.0384071013
 C          6.0168927901       -1.1760831789       -0.3879633913
 C          6.0378576205       -2.6952894090       -0.5988638509
 C          4.7633528306       -3.2785342495       -1.2261043007
 H          4.1267877003       -2.4741406597       -1.5989182408
 H          5.0394640807       -3.8986913396       -2.0808494206
 C          3.9640439009       -4.1492598995       -0.2538208304
 H          4.6586776512       -4.7832625692        0.3015503396
 H          3.3080323211       -4.8074106198       -0.8285987002
 C          3.0828061508       -3.3884637095        0.7366090995
 H          2.2402692807       -2.9293587198        0.2107557395
 H          2.6608149711       -4.1132752595        1.4373956097
 C          3.7892495506       -2.2835244291        1.5391529792
 H          3.2274509107       -2.1308340791        2.4648701192
 H          4.8065518807       -2.5709412388        1.7941493192
 H          6.2259909307       -3.1932984587        0.3511071891
 H          6.8924932105       -2.9118248189       -1.2420074210
 H          6.3397010299       -0.6748216590       -1.3035877914
 H          6.7362319201       -0.9132644686        0.3931339786
 O          4.5778400396        0.6426629806       -0.7060281015
 C          3.4793397594        1.4752855403       -0.5571082516
 O          3.5474517990        2.5065352102       -1.2538897718
 H         -1.2553837703        0.9542318094        0.8223869691
 C         -1.0450927305        1.2691052992       -0.1887725110
 C          0.2037518893        1.7837844195       -0.5078640513
 C          0.4568301291        2.1659188693       -1.8213600514
 C         -0.5206924510        2.0251062588       -2.7890586312
 C         -1.7630820408        1.5074943385       -2.4687529610
 C         -2.0297304606        1.1303016287       -1.1573327109
 N         -3.3045839004        0.6543941785       -0.8052191107
 S         -3.4700609700       -0.5092211013        0.4056529796
 O         -3.2764591200        0.1202029090        1.6872336195
 O         -2.6405061697       -1.6571583012        0.1128913598
 C         -5.1938271999       -0.9155573318        0.1974009299
 C         -5.5527713496       -2.0809898221       -0.4521993898
 C         -6.8986738996       -2.3629454325       -0.6284593196
 C         -7.8569090298       -1.4782353926       -0.1575551997
 C         -7.4811717400       -0.3126630124        0.4940947800
 C         -6.1377820401       -0.0256888320        0.6749689898
 H         -5.7982631603        0.8620129682        1.1825134196
 H         -8.2289915202        0.3715281675        0.8613026199
 H         -8.9032804297       -1.6996660829       -0.2966806096
 H         -7.1937380494       -3.2698471827       -1.1312206494
 H         -4.7730800095       -2.7420693019       -0.7952106698
 H         -3.8613881404        0.4116180181       -1.6139686005
 H         -2.5238783909        1.3999253282       -3.2270410509
 H         -0.3112044612        2.3193323386       -3.8065367913
 H          1.4285040389        2.5597972595       -2.0760354416
 C          1.2441666194        1.9395290600        0.5763060886
 H          0.8092006996        1.5439926401        1.5050808587
 C          1.5693077590        3.4060067801        0.7884612382
 C          0.5860678989        4.2637943400        1.5242781182
 C          1.8881951790        3.8940879405        2.1679097481
 H          2.6445655888        4.6559507807        2.2818549579
 H          1.8734660993        3.1696758307        2.9695759083
 H         -0.3128368310        3.7895112198        1.8897873884
 H          0.4452073486        5.2822834499        1.1969327180
 H          2.1123400388        3.8502675001       -0.0352136519
 O          1.6689122102       -0.5198340396        1.8524535391
