  62
        -98.94484640
 C          1.9094022565        0.1278341493        0.0384578974
 C          2.9042645052        1.0368834143        0.4711094769
 C          4.2275620497        0.4606050887        0.7418326222
 C          4.4112052953       -0.8636111310        0.5879467192
 C          5.7190286838       -1.5741506779        0.7809995580
 C          6.5103230395       -1.6501842907       -0.5322660827
 C          6.6245643623       -0.3124997548       -1.2633531748
 H          7.2274485787       -0.4816965926       -2.1582274439
 H          5.6317028023       -0.0041502656       -1.5989271210
 C          7.2507853743        0.8148470821       -0.4306148058
 H          7.7908037913        0.3927034879        0.4176709320
 H          7.9800506637        1.3427893638       -1.0486973262
 C          6.2536336500        1.8600440872        0.0727352036
 H          6.8198666358        2.7138373895        0.4542811403
 H          5.6455416241        2.2175146168       -0.7620796711
 C          5.3121220598        1.3985543826        1.1922527455
 H          5.8940090796        0.9549314683        2.0026321385
 H          4.7997112632        2.2835090426        1.5808724373
 H          7.5085362522       -2.0329894062       -0.3120067522
 H          6.0124146858       -2.3612966654       -1.1955956027
 H          6.3014734019       -1.0529309871        1.5383009526
 H          5.5111904847       -2.5875285540        1.1285737934
 O          3.4256757211       -1.7086999816        0.1905614069
 C          2.1534475411       -1.2380682562       -0.1028185752
 O          1.3515554139       -2.1188683621       -0.4664726086
 O          2.6927891261        2.2693870128        0.6290334490
 C          0.5229148463        0.6596739329       -0.2789559712
 C         -0.5037053826       -0.0278922257        0.5855618887
 C         -0.3175140143       -0.0271159338        1.9666483502
 C         -1.2125470346       -0.6648027277        2.8018075919
 C         -2.3229277141       -1.3060563083        2.2797389172
 C         -2.5238522623       -1.3060184923        0.9057135192
 C         -1.6203475338       -0.6636643710        0.0677763391
 H         -1.7956539313       -0.6970211299       -0.9939257337
 N         -3.6364244946       -1.9584195776        0.3494691742
 S         -4.5513874008       -1.2028335885       -0.8275021160
 O         -5.7922207282       -1.9454812872       -0.8533201969
 O         -3.8238343294       -1.1355082826       -2.0682573567
 C         -4.8338590943        0.4337128718       -0.1780836248
 C         -4.0480876410        1.4851849304       -0.6029231912
 C         -4.2355988933        2.7336505406       -0.0305520142
 C         -5.1985613177        2.9073861841        0.9511773040
 C         -5.9839050891        1.8412899905        1.3634803490
 C         -5.7987223459        0.5904465351        0.7981926419
 H         -6.3950169215       -0.2612612392        1.0828616863
 H         -6.7355543100        1.9813035314        2.1235333169
 H         -5.3389396861        3.8802817099        1.3951601693
 H         -3.6274367073        3.5643072403       -0.3516400745
 H         -3.3126492671        1.3116670764       -1.3707967450
 H         -4.2318732628       -2.4128702130        1.0262922754
 H         -3.0201115379       -1.8130651916        2.9293660427
 H         -1.0483246384       -0.6625455157        3.8687949975
 H          0.5510801258        0.4723166610        2.3738799122
 H          0.5511603618        1.7236655261       -0.0001276705
 C          0.2463523214        0.5541158412       -1.7633466349
 C         -0.6495326313        1.5485350850       -2.4367808609
 C          0.8279424400        1.5818326042       -2.6856817920
 H          1.2002364072        1.2603298725       -3.6468741924
 H          1.4028910644        2.3797753948       -2.2386414622
 H         -1.2999468224        1.2035782681       -3.2272715679
 H         -1.0683257582        2.3336771650       -1.8252897229
 H          0.2271207706       -0.4717363197       -2.1152277153
