  62
        -98.94531261
 C          2.1361490259        0.8943899666        0.0726860965
 C          2.8516674347        0.2240036200        1.0925463792
 C          3.5744264727       -0.9871613890        0.6823027797
 C          3.4790572195       -1.4089681529       -0.5921040453
 C          4.1987836622       -2.5988601261       -1.1565173783
 C          5.5596816690       -2.1982880002       -1.7433805693
 C          6.4076414589       -1.3388480923       -0.8056639765
 H          7.3553573004       -1.1439733168       -1.3120414316
 H          5.9146206051       -0.3744816863       -0.6634911013
 C          6.6811755286       -1.9746046637        0.5645239285
 H          7.7365874650       -1.8383465994        0.8092793191
 H          6.4953905817       -3.0482734624        0.5185369248
 C          5.8758348044       -1.3701195105        1.7161182507
 H          6.2993518997       -1.7349431188        2.6555916800
 H          5.9850571305       -0.2827674021        1.7080342472
 C          4.3785952081       -1.7035112732        1.7308550019
 H          4.2407993529       -2.7839566861        1.6514098005
 H          3.9746001723       -1.3757759705        2.6933804097
 H          5.3866729829       -1.6344205858       -2.6629026015
 H          6.1051995282       -3.1081551561       -2.0001636720
 H          4.3335283637       -3.3415466118       -0.3723586731
 H          3.5823856677       -3.0283723610       -1.9482832991
 O          2.7422063304       -0.7653233047       -1.5334474117
 C          2.0596865180        0.4048619262       -1.2316172443
 O          1.4368577296        0.8981405031       -2.1900858025
 H         -0.0970837075        0.1408890722        1.2793162899
 C         -0.6978391093        0.8310058278        0.6985515931
 C         -0.0950326764        1.9636686801        0.1639865225
 C         -0.8758548987        2.8392418543       -0.5778987783
 C         -2.2178440172        2.5725432914       -0.7898380714
 C         -2.8105658779        1.4403516120       -0.2627531540
 C         -2.0402961221        0.5611122434        0.4876249674
 N         -2.6366507544       -0.5875886799        1.0414419120
 S         -3.4772035700       -1.6048657881       -0.0002459742
 O         -3.4458361779       -2.9037182261        0.6377327027
 O         -2.9582173432       -1.5378769584       -1.3469324914
 C         -5.1424592110       -0.9762048208        0.0498735733
 C         -5.7639085711       -0.8759089415        1.2793874927
 C         -7.0616660986       -0.3934023253        1.3351240154
 C         -7.7132337609       -0.0247506555        0.1673841487
 C         -7.0767810717       -0.1351584602       -1.0594280144
 C         -5.7779559096       -0.6160680061       -1.1222291673
 H         -5.2399090332       -0.7134886879       -2.0518657619
 H         -7.5846376709        0.1513529628       -1.9663308365
 H         -8.7231565831        0.3509848360        0.2136069869
 H         -7.5599287772       -0.3060937070        2.2871564723
 H         -5.2232278762       -1.1764093877        2.1612275325
 H         -2.0048042098       -1.1273302398        1.6160238177
 H         -3.8534223581        1.2270993674       -0.4313592896
 H         -2.8106863120        3.2572749351       -1.3767897432
 H         -0.4321059226        3.7246169008       -1.0021024557
 C          1.3788737840        2.1645262099        0.4178266747
 H          1.5229702062        2.3052028799        1.4995746489
 C          1.9692830006        3.3525677827       -0.3111328212
 C          1.8527614490        4.7280926860        0.2724179924
 C          3.1770123511        4.0272655119        0.2646188478
 H          3.9439320783        4.3758006147       -0.4107470787
 H          3.5605509950        3.6440947367        1.1991069888
 H          1.7123279839        5.5623531049       -0.3979933306
 H          1.3384357843        4.8277859869        1.2161100293
 H          1.9227563080        3.2443290995       -1.3889609657
 O          2.8782270839        0.6160280503        2.2911507390
