  62
        -98.94517062
 C          1.4974031698        0.8324012553       -0.5261133299
 C          2.6138617236        0.9891420476        0.3366003707
 C          3.2978837635       -0.2380524483        0.7596475963
 C          2.8211718559       -1.4268224968        0.3484148306
 C          3.4340135892       -2.7580991834        0.6720564459
 C          4.4509548809       -3.1792568690       -0.3979365229
 C          5.4648104331       -2.0895944244       -0.7466799276
 H          4.9423112636       -1.2581278522       -1.2250048761
 H          6.1504923484       -2.5079338846       -1.4865805251
 C          6.2654661880       -1.5610730334        0.4516300298
 H          7.3176126542       -1.4932430049        0.1673260445
 H          6.1988255032       -2.2654795243        1.2815160023
 C          5.8439813262       -0.1713602150        0.9329671181
 H          5.8160675145        0.5171736330        0.0847636614
 H          6.6062631747        0.1939479728        1.6262572961
 C          4.4942043834       -0.0956903514        1.6582727085
 H          4.4129391842        0.8979211194        2.1088900377
 H          4.4634321994       -0.8377118840        2.4591994689
 H          3.9063133143       -3.4446864203       -1.3068817247
 H          4.9757106866       -4.0684873175       -0.0439214934
 H          3.9164398114       -2.7008598304        1.6460734497
 H          2.6345134421       -3.4998669760        0.7180719750
 O          1.7415833433       -1.5438632687       -0.4602375159
 C          1.0497835858       -0.4301628001       -0.9142948085
 O          0.0882507932       -0.7201665215       -1.6532294345
 H         -1.3301410091        0.5602491510       -0.2613985505
 C         -1.3309752377        1.4946799063        0.2734867280
 C         -0.3235282786        2.4206985351        0.0387422602
 C         -0.3404130576        3.6224484360        0.7356994983
 C         -1.3354926181        3.8828883708        1.6611006432
 C         -2.3119337924        2.9405639850        1.9238331587
 C         -2.3044854820        1.7330662974        1.2314170227
 N         -3.2850873677        0.7664375373        1.4896620604
 S         -2.9645009916       -0.8828220307        1.4914108188
 O         -3.7513859808       -1.3968783596        2.5960965145
 O         -1.5486201204       -1.1543876776        1.5410465356
 C         -3.7114094211       -1.4447199017       -0.0246625902
 C         -5.0854245729       -1.6012143394       -0.0264816867
 C         -5.7155014265       -2.0161339573       -1.1872292244
 C         -4.9645064234       -2.2669529214       -2.3262490991
 C         -3.5883239480       -2.1074146051       -2.3076060854
 C         -2.9497497887       -1.6928134291       -1.1475230589
 H         -1.8788275432       -1.5605719119       -1.1180902183
 H         -2.9974901109       -2.3002355888       -3.1890168230
 H         -5.4527372145       -2.5899559979       -3.2322893164
 H         -6.7860119837       -2.1430040489       -1.2016155135
 H         -5.6272176188       -1.4097651339        0.8848359895
 H         -3.9182866851        1.0070577305        2.2383266017
 H         -3.0739240512        3.1305691921        2.6646871311
 H         -1.3397929209        4.8198693009        2.1971534055
 H          0.4445229150        4.3443275984        0.5649294391
 C          0.7860364950        2.1106491759       -0.9394564983
 H          1.5404227390        2.9041062349       -0.8436040388
 C          0.2677682480        2.1143674980       -2.3631337082
 C          0.0449565575        3.4279548254       -3.0488633238
 C          1.1766785507        2.5424034497       -3.4743892305
 H          1.1073633830        2.0289958141       -4.4214256813
 H          2.1821992084        2.8379521284       -3.2117160239
 H          0.2843753457        4.3263717131       -2.5004923318
 H         -0.8057502765        3.5266064090       -3.7051493104
 H         -0.4278818737        1.3127260852       -2.5714120137
 O          3.0238324690        2.1151504202        0.7303281038
