  62
        -98.94375076
 C         -1.2480789535       -0.9091149666        0.2031471027
 C         -1.7010253137        0.2125311047        0.9424898640
 C         -2.7211102904        1.0449576253        0.2971712448
 C         -3.0980400479        0.7746507513       -0.9651158632
 C         -4.1025604182        1.5488385827       -1.7748445221
 C         -5.5610948646        1.1506498657       -1.5094982389
 C         -6.1266653580        1.6078788612       -0.1642040278
 H         -5.9515388635        2.6773699512       -0.0433704713
 H         -7.2072016052        1.4567169532       -0.2034018014
 C         -5.5660081680        0.8516993879        1.0483256493
 H         -5.0905718230       -0.0724735029        0.7115080880
 H         -6.3861254586        0.5667451039        1.7109896336
 C         -4.5636456070        1.6478048801        1.8841501324
 H         -5.0634428991        2.5083341421        2.3341278921
 H         -4.2046826079        1.0056156725        2.6924536772
 C         -3.3439402447        2.1477578884        1.0986070944
 H         -3.6262387109        2.9765510410        0.4492413748
 H         -2.5956994507        2.5034791114        1.8114155171
 H         -6.1676914328        1.5920305637       -2.3036217652
 H         -5.6464315379        0.0645493860       -1.5912081323
 H         -3.8745454419        1.3488186620       -2.8242165306
 H         -3.9744291798        2.6163824862       -1.5916278074
 O         -2.5696821910       -0.2536743449       -1.6789731953
 C         -1.6406248876       -1.1230977499       -1.1189996724
 O         -1.2551574650       -2.0139212541       -1.8989309828
 O         -1.2642615804        0.5085238549        2.0871785249
 C         -0.2036771211       -1.7995800310        0.8500998500
 C          0.9912295278       -1.9522875106       -0.0580762469
 C          1.6198517015       -3.1602123589       -0.3290230105
 C          2.7334382955       -3.1974911573       -1.1512760536
 C          3.2553008909       -2.0406185306       -1.6999726392
 C          2.6298618599       -0.8263990615       -1.4377470745
 C          1.5099680957       -0.7955274376       -0.6252102924
 H          1.0101933031        0.1459388823       -0.4568569358
 N          3.1154320716        0.3736537593       -1.9760135279
 S          2.9403025522        1.8020167626       -1.1307776945
 O          1.5796444759        2.2743317341       -1.2072952137
 O          3.9419977692        2.6764204599       -1.7035979395
 C          3.3824834149        1.4032264308        0.5515630334
 C          4.6937526551        1.0417965180        0.7955321003
 C          5.0655554675        0.6867476964        2.0813680371
 C          4.1225927086        0.6935495588        3.0983869620
 C          2.8127314939        1.0647475164        2.8395875135
 C          2.4360179349        1.4250120019        1.5550261745
 H          1.4210224940        1.7128038095        1.3277791267
 H          2.0723432005        1.0702861755        3.6238395560
 H          4.4089313741        0.4104429607        4.0989659409
 H          6.0851002946        0.4029840604        2.2864495799
 H          5.4001005429        1.0583410987       -0.0183840242
 H          4.0011266011        0.3092205034       -2.4544457156
 H          4.1252303383       -2.0739221087       -2.3375366589
 H          3.2066506800       -4.1441181345       -1.3635478401
 H          1.2286236921       -4.0754186450        0.0834777469
 H          0.1308248486       -1.2184845988        1.7275156592
 C         -0.7375261013       -3.1185094781        1.3896735865
 C         -2.1981524632       -3.3116092034        1.6653810632
 C         -1.5409397510       -4.0634479368        0.5489364794
 H         -1.3792915364       -5.1242990072        0.6736674462
 H         -1.7526560707       -3.7678811950       -0.4662949912
 H         -2.4862354764       -3.8517800318        2.5548934140
 H         -2.8675023300       -2.5026512797        1.4093589507
 H         -0.0571060742       -3.5681668021        2.1061574592
