  62
        -98.94487826
 C         -1.9406467386       -0.3820241476       -0.6864091101
 C         -2.9857547988       -1.2627966564       -0.3174609161
 C         -4.3374280867       -0.6935270785       -0.3350050062
 C         -4.5168135536        0.5873939926       -0.7059578648
 C         -5.8365650397        1.3043823960       -0.7989012944
 C         -6.3306239650        1.8796310472        0.5356156988
 C         -6.8360927569        0.8458121496        1.5427350655
 H         -7.3488120973        1.3948757543        2.3350315141
 H         -7.5743947292        0.2030876592        1.0621934116
 C         -5.7326800391       -0.0151280862        2.1732812427
 H         -5.8880074941       -0.0726272293        3.2529928984
 H         -4.7632767530        0.4630786407        2.0145020333
 C         -5.6697952869       -1.4491372831        1.6473261912
 H         -6.5862085224       -1.9788168240        1.9165944504
 H         -4.8326633644       -1.9563243288        2.1335961738
 C         -5.4715247243       -1.5567445259        0.1296559665
 H         -5.2208982234       -2.5926972760       -0.1112102439
 H         -6.3913419554       -1.2894716693       -0.3899132740
 H         -7.1497245554        2.5665015421        0.3103463622
 H         -5.5228740155        2.4622155903        0.9847597254
 H         -6.5910793179        0.6321612101       -1.2085312996
 H         -5.6914247980        2.1313509678       -1.4973770531
 O         -3.4866997721        1.3969664494       -1.0701743891
 C         -2.1747918577        0.9431419082       -1.0530006615
 O         -1.3331836374        1.7997673708       -1.3838084370
 O         -2.7968764706       -2.4643919077        0.0112918365
 C         -0.5130605617       -0.9001131340       -0.6817448409
 C          0.3242264412       -0.0753013299        0.2632171544
 C         -0.0854489890        0.0331499197        1.5908719686
 C          0.6250852022        0.8026426882        2.4899806354
 C          1.7689129671        1.4715876005        2.0885966298
 C          2.1908125337        1.3657857961        0.7696440632
 C          1.4729244492        0.5900215699       -0.1325401906
 H          1.8150616136        0.5435011116       -1.1521199513
 N          3.3381640816        2.0479687380        0.3335572720
 S          4.4811462759        1.2769978636       -0.6104398913
 O          5.6422246944        2.1367747626       -0.5460987101
 O          3.9564367129        1.0104299682       -1.9245056299
 C          4.8073478260       -0.2476095169        0.2548582700
 C          5.6903390940       -0.2203212534        1.3170976312
 C          5.9018279470       -1.3802887698        2.0439004207
 C          5.2220483895       -2.5403139063        1.7040112393
 C          4.3391717504       -2.5509938865        0.6354253543
 C          4.1268101669       -1.3947648231       -0.0991231502
 H          3.4523169498       -1.3661870478       -0.9387343630
 H          3.8126418975       -3.4542228286        0.3711546556
 H          5.3826576396       -3.4424545728        2.2729690956
 H          6.5917616847       -1.3766944276        2.8723268247
 H          6.2050449523        0.6999310918        1.5412217461
 H          3.7844575911        2.6080625581        1.0450726585
 H          2.3218675608        2.0812753312        2.7869709874
 H          0.2895788035        0.8827221329        3.5129533976
 H         -0.9805037171       -0.4878078820        1.9027585876
 H         -0.5785805865       -1.9231988337       -0.2825637254
 C          0.0322001802       -0.9638430670       -2.0920280405
 C          1.0789864668       -1.9748313097       -2.4491931936
 C         -0.3217761931       -2.1343117032       -2.9577195022
 H         -0.5170836708       -1.9597427363       -4.0051381399
 H         -0.9392707855       -2.9054104655       -2.5205992102
 H          1.8536052893       -1.6898130404       -3.1461011345
 H          1.4054831617       -2.6485517213       -1.6711399179
 H          0.0775398304        0.0086104373       -2.5703176527
