  62
        -98.94069697
 C         -2.3109753362       -1.0581168472       -0.0727148489
 C         -2.0015208080        0.2465559065       -0.5282369353
 C         -2.7156049895        1.3434669514        0.1390521137
 C         -3.5657576325        1.0826676959        1.1474584829
 C         -4.3404315475        2.0975335254        1.9434490295
 C         -5.6486464591        2.5485367488        1.2789568024
 C         -5.4809648138        3.4632282532        0.0650152432
 H         -6.4655399803        3.8765480771       -0.1624175250
 H         -4.8303704194        4.2977472562        0.3283548671
 C         -4.9392806524        2.7601932962       -1.1874258166
 H         -5.5314260322        3.0564440682       -2.0561286175
 H         -5.0526999267        1.6794418830       -1.0759234717
 C         -3.4776453307        3.0731006449       -1.5072290460
 H         -3.1881846876        2.4943268249       -2.3878547983
 H         -3.3741790405        4.1327856100       -1.7507456390
 C         -2.4986667986        2.7349904587       -0.3753230147
 H         -1.4814445784        2.7876157288       -0.7711371825
 H         -2.5942325484        3.4576863061        0.4347895011
 H         -6.2281555559        3.0846163235        2.0340597233
 H         -6.2176467454        1.6614836909        0.9913609470
 H         -4.5837115900        1.6227114467        2.8964814242
 H         -3.7112167237        2.9662091590        2.1402305888
 O         -3.8087886823       -0.1814546705        1.5839961099
 C         -3.2057275903       -1.2709926971        0.9816808219
 O         -3.5438806611       -2.3699496731        1.4657196777
 H          0.5373676642       -0.8461762226       -1.1676133085
 C          0.7386133875       -1.6366432977       -0.4599251191
 C         -0.2892551255       -2.4915243783       -0.0888668701
 C         -0.0236192902       -3.4786477448        0.8530276063
 C          1.2385369918       -3.6020556188        1.4075127611
 C          2.2597088063       -2.7444366999        1.0382635758
 C          2.0004507384       -1.7504160618        0.1040734581
 N          3.0278061714       -0.8541812705       -0.2769288849
 S          3.6396634861        0.0963109958        0.9820535186
 O          4.4065959677       -0.7507459841        1.8600032523
 O          2.5737062603        0.8531898331        1.6049959393
 C          4.7274800881        1.1816378382        0.0804454038
 C          6.0184509615        0.7658498236       -0.1825480455
 C          6.8524987932        1.5955632048       -0.9148611099
 C          6.3835914555        2.8185865570       -1.3708538375
 C          5.0848739633        3.2219291710       -1.0990582367
 C          4.2452701779        2.3964014910       -0.3678405890
 H          3.2307749512        2.6730498920       -0.1268646190
 H          4.7224443062        4.1733601571       -1.4539427869
 H          7.0340121457        3.4631747980       -1.9407329407
 H          7.8633234334        1.2869203466       -1.1270940058
 H          6.3397165756       -0.1892196664        0.1984499767
 H          2.6920598902       -0.2294813988       -1.0008318964
 H          3.2401439386       -2.8155825371        1.4799643264
 H          1.4287809925       -4.3719045012        2.1402999163
 H         -0.8223875000       -4.1358209076        1.1663037817
 C         -1.6794350589       -2.3165089546       -0.6524750520
 H         -2.2941958070       -3.1501573132       -0.2880824052
 C         -1.6877438414       -2.3416335143       -2.1680957991
 C         -1.5214198303       -3.6541241279       -2.8707483393
 C         -2.8498037530       -2.9604342044       -2.8823935685
 H         -3.1895720115       -2.5074732140       -3.8016891062
 H         -3.6460455718       -3.3719064105       -2.2789135100
 H         -1.4166780392       -4.5374759223       -2.2590158847
 H         -0.9466512510       -3.6803209204       -3.7836278647
 H         -1.2395803165       -1.4668458171       -2.6194907118
 O         -1.1775172944        0.5129041323       -1.4442209005
