  62
        -98.95212096
 C         -2.3513779313       -0.3793642082        0.0422151589
 C         -1.5214482415        0.2059727693       -0.9417831443
 C         -1.5554482594        1.6714087329       -1.0260470477
 C         -2.3497292284        2.3592633343       -0.1859327972
 C         -2.4953919898        3.8533355835       -0.1701635637
 C         -1.5201352617        4.5168602371        0.8102672297
 C         -0.0707133560        4.0563757696        0.6545526744
 H          0.5313094290        4.6376456874        1.3574291181
 H          0.0154105412        3.0106637029        0.9591377713
 C          0.5020523878        4.2158725022       -0.7606210390
 H         -0.0978195582        4.9285965496       -1.3287520118
 H          1.5102766779        4.6281455951       -0.6810207257
 C          0.6184977590        2.9036714255       -1.5387274643
 H          1.0920981889        2.1545004562       -0.8991282378
 H          1.2754937355        3.0706402718       -2.3968355527
 C         -0.6985145088        2.3253586633       -2.0730878958
 H         -1.2565622517        3.1044832694       -2.5975225089
 H         -0.4508738300        1.5375257307       -2.7905108279
 H         -1.5766583235        5.5985020788        0.6699119445
 H         -1.8419692966        4.2893127868        1.8293005279
 H         -2.3289404423        4.2355825361       -1.1757150781
 H         -3.5166102938        4.0912090827        0.1341649020
 O         -3.1160659273        1.7638097399        0.7645025179
 C         -3.1222953554        0.3866883583        0.9140726929
 O         -3.8507763064       -0.0295164476        1.8396205026
 O         -0.7991831596       -0.4670695846       -1.7243531021
 C         -2.3957166210       -1.8900514655        0.1874621026
 C         -0.9998990491       -2.4438457930        0.3386398004
 C         -0.5702011777       -3.6101291223       -0.2829803333
 C          0.7299620169       -4.0557304147       -0.1181969297
 C          1.6327449375       -3.3396190780        0.6463535312
 C          1.2090139278       -2.1777782131        1.2807397490
 C         -0.1046223309       -1.7586786931        1.1497197806
 H         -0.4203278864       -0.8561808238        1.6528821240
 N          2.0928871155       -1.3964489695        2.0547455635
 S          2.3895872915        0.1654715638        1.5202212535
 O          3.3529491382        0.7048288127        2.4563997868
 O          1.1496605259        0.8850613802        1.3965720884
 C          3.1748898044       -0.0514603691       -0.0674979852
 C          2.4123350171       -0.3903874057       -1.1673989711
 C          3.0549784066       -0.6201561935       -2.3749977969
 C          4.4338312064       -0.5122158062       -2.4627990395
 C          5.1842892980       -0.1719023567       -1.3471016910
 C          4.5511328485        0.0562032470       -0.1366297245
 H          5.0907344214        0.3258308981        0.7569706176
 H          6.2567421449       -0.0856791391       -1.4161825206
 H          4.9251129142       -0.6933037906       -3.4058659278
 H          2.4628957278       -0.8836728609       -3.2366646636
 H          1.3384645995       -0.4654924905       -1.0878612705
 H          2.9760477834       -1.8512070475        2.2437942193
 H          2.6547753971       -3.6712524705        0.7522896462
 H          1.0494603491       -4.9628153339       -0.6080303689
 H         -1.2529176004       -4.1678857964       -0.9029182096
 H         -2.9514585109       -2.0924182886        1.1152583574
 C         -3.1541873156       -2.4943294795       -0.9780106981
 C         -3.9601434414       -3.7444208201       -0.7953636311
 C         -4.6508050533       -2.4271125409       -0.9765223665
 H         -5.1598054651       -2.2321756767       -1.9085025543
 H         -5.1226141357       -1.9702038850       -0.1184369408
 H         -4.0002383846       -4.4561005366       -1.6062182897
 H         -3.9757641087       -4.1911266647        0.1873061649
 H         -2.6483402545       -2.3423318721       -1.9247864044
