  62
        -98.94204806
 C          0.9484963597        1.0965306037        0.7343218905
 C          1.6697234595        0.9749231265       -0.4751985034
 C          2.4136769853       -0.2817323109       -0.6719521911
 C          2.3284414568       -1.2550174493        0.2527623054
 C          2.9107593715       -2.6533865276        0.2771830416
 C          4.0832055076       -3.0277407969       -0.6265705207
 C          5.3856206864       -2.2845594182       -0.3357774131
 H          5.7535956614       -2.5937494664        0.6456076950
 H          6.1229840693       -2.5925491738       -1.0804291616
 C          5.2878654060       -0.7609738738       -0.3363713019
 H          4.6630945586       -0.4322443385        0.4964844888
 H          6.2910959140       -0.3622653072       -0.1635511189
 C          4.7568063368       -0.1403375254       -1.6278835954
 H          4.9168353169        0.9389872952       -1.5621459378
 H          5.3313838339       -0.5119013861       -2.4784564854
 C          3.2590490981       -0.3663157606       -1.9088410971
 H          2.9110847494        0.4319635693       -2.5711878734
 H          3.0839882246       -1.3086727869       -2.4240747031
 H          3.8058957215       -2.9092318691       -1.6701357152
 H          4.2679360280       -4.0938679478       -0.4674172686
 H          3.1888857870       -2.8403810597        1.3192647639
 H          2.0771173937       -3.3286769545        0.0502685601
 O          1.5760411444       -1.1111273078        1.3832207828
 C          0.8728709849        0.0508493867        1.6507191091
 O          0.2281510153        0.0273351833        2.7186363909
 H         -1.4677368330        0.3717826069        0.2417902250
 C         -1.6839284314        1.2701624161       -0.3181302655
 C         -0.9637291042        2.4265730300       -0.0456395181
 C         -1.2646526848        3.5792204539       -0.7579661241
 C         -2.2394234225        3.5551281657       -1.7414579816
 C         -2.9175354080        2.3885891479       -2.0437936584
 C         -2.6329784395        1.2329229971       -1.3243570388
 N         -3.3008370712        0.0264501156       -1.5819324182
 S         -2.4804469061       -1.4226021921       -1.4138544639
 O         -1.0886179820       -1.3106221639       -1.7851836030
 O         -3.2640099017       -2.3639229692       -2.1889073589
 C         -2.6388976734       -1.8348671432        0.3095569362
 C         -3.8471940677       -1.6222466095        0.9430092307
 C         -3.9700448747       -1.9711690585        2.2781229704
 C         -2.8924598804       -2.5266945509        2.9514230603
 C         -1.6885363180       -2.7405276468        2.2993220686
 C         -1.5604527335       -2.3939538194        0.9643553706
 H         -0.6351891586       -2.5245950656        0.4242019916
 H         -0.8444220578       -3.1589188859        2.8234602895
 H         -2.9872821389       -2.7911934456        3.9927143971
 H         -4.9034048120       -1.8050341093        2.7916425598
 H         -4.6603798670       -1.1837762230        0.3890398542
 H         -3.9063400527        0.0310703450       -2.3898129019
 H         -3.6560511187        2.3667953392       -2.8305762127
 H         -2.4608525942        4.4553224450       -2.2945817959
 H         -0.7280093314        4.4913979923       -0.5551812758
 C          0.1146121041        2.3364304742        1.0077890958
 H         -0.3712088533        2.1663894024        1.9799630163
 C          0.9839350705        3.5713715037        1.1016324733
 C          0.5431263419        4.7397618692        1.9299919499
 C          1.6737149153        3.8743235223        2.3966907339
 H          2.6771476436        4.2715085821        2.3654730585
 H          1.4968635274        3.1999577930        3.2221021600
 H          0.7725375204        5.7352662840        1.5810818499
 H         -0.4017614709        4.6586514039        2.4455679488
 H          1.5300303153        3.7665447940        0.1861847002
 O          1.6955451894        1.8724567530       -1.3582977640
