  62
        -98.94386411
 C         -1.8481881003       -1.1233811705       -0.4866807179
 C         -1.9138333999        0.0185013610        0.3485972501
 C         -3.2289593798        0.2958044826        0.9409447496
 C         -4.2641881001       -0.5268050775        0.6929408711
 C         -5.6574693500       -0.3882762460        1.2440988108
 C         -6.5502079097        0.5758879229        0.4508229291
 C         -6.2160875291        2.0588291930        0.6178470364
 H         -7.0462225889        2.6239745026        0.1892718854
 H         -6.1715819090        2.3023482549        1.6798970760
 C         -4.9144693690        2.4959182013       -0.0684755444
 H         -4.6176326093        1.7406034499       -0.7997277630
 H         -5.0874622286        3.4235618204       -0.6186780661
 C         -3.7471644589        2.7460347326        0.8863989051
 H         -3.9811674786        3.5907823639        1.5381223036
 H         -2.8702640888        3.0121250712        0.2912717847
 C         -3.3791934993        1.5409962141        1.7618824373
 H         -4.1298012293        1.3975860658        2.5389290876
 H         -2.4168133792        1.7424902546        2.2390484270
 H         -7.5781247097        0.4170383038        0.7850909594
 H         -6.5003850398        0.3076556809       -0.6070956804
 H         -6.1069780504       -1.3830223759        1.2061180427
 H         -5.6102090099       -0.0688739242        2.2856950603
 O         -4.1527713204       -1.6274771090       -0.0984103669
 C         -2.9537311506       -1.9409951506       -0.7188977964
 O         -2.9964921009       -2.9626889518       -1.4351932445
 O         -0.9323788696        0.7643539411        0.5924657987
 C         -0.5488993104       -1.4855948223       -1.1789003272
 C          0.5675223295       -1.7166153809       -0.1884299368
 C          0.2970003393       -2.2386124785        1.0724530542
 C          1.3097569493       -2.4382954572        1.9922603245
 C          2.6219569194       -2.1385351282        1.6707439240
 C          2.9076028895       -1.6440333706        0.4068521931
 C          1.8877133296       -1.4362755919       -0.5133243873
 H          2.1297729897       -1.0448915438       -1.4898350680
 N          4.2496468997       -1.3339341517        0.0834884125
 S          4.8438271802        0.0741348694        0.7762876099
 O          6.2078342702        0.1981881780        0.3147757497
 O          4.6492719602        0.0052131520        2.2009283601
 C          3.8408647306        1.3609595984        0.0572978176
 C          2.5492704807        1.5284266497        0.5147885273
 C          1.7262123210        2.4445612689       -0.1211062043
 C          2.2100930413        3.1778883567       -1.1935292357
 C          3.5139186912        3.0056205655       -1.6353386854
 C          4.3360507809        2.0806358563       -1.0130156037
 H          5.3519872508        1.9059898854       -1.3292230034
 H          3.8862980514        3.5811811538       -2.4677299964
 H          1.5645136115        3.8863198361       -1.6890756770
 H          0.7062858710        2.5456515298        0.2143244455
 H          2.1926713505        0.9466129314        1.3492131184
 H          4.4186227497       -1.2975656235       -0.9130247076
 H          3.4215672993       -2.2656258472        2.3818636142
 H          1.0747544991       -2.8310057853        2.9702164252
 H         -0.7255617307       -2.4761915676        1.3326205946
 H         -0.7393891007       -2.4338558931       -1.7038303055
 C         -0.2021050700       -0.4200234742       -2.2026274091
 C          0.4308178298       -0.7884339968       -3.5101126385
 C         -1.0009011400       -0.3481537962       -3.4678757293
 H         -1.2571933797        0.6229620031       -3.8635479510
 H         -1.7701619103       -1.0940165462       -3.6090462679
 H          1.1581909301       -0.1153487179       -3.9391873897
 H          0.6289972595       -1.8334418172       -3.6969067466
 H          0.0886927003        0.5165668665       -1.7404206608
