  62
        -98.93720326
 C         -1.9809246092       -1.1123419305        0.2053479688
 C         -2.6017819291       -0.2928030813        1.1812687096
 C         -4.0162983092        0.0522735787        0.9633052701
 C         -4.6357583994       -0.4135209305       -0.1349919101
 C         -6.0505185595       -0.1538224403       -0.5734102297
 C         -6.1124868898        1.0442028405       -1.5358096187
 C         -6.2495653598        2.4072405400       -0.8586975875
 H         -6.1504439300        3.1681232806       -1.6363132369
 H         -7.2525990597        2.4992681995       -0.4367077373
 C         -5.2269893796        2.6953770692        0.2436281425
 H         -4.2367041797        2.3670188695       -0.0780256879
 H         -5.1782982497        3.7775090491        0.3805274834
 C         -5.5855465093        2.0402544280        1.5859559120
 H         -5.5560622993        2.7943711974        2.3753415126
 H         -6.6128253893        1.6789368379        1.5431007219
 C         -4.6553902491        0.9013967378        2.0282417509
 H         -5.1980587689        0.2460477171        2.7179813305
 H         -3.8145239891        1.3175384774        2.5920697211
 H         -5.2086871299        1.0275767011       -2.1504107089
 H         -6.9648908199        0.9123660510       -2.2053102086
 H         -6.6993697493       -0.0038833510        0.2843295406
 H         -6.3773396595       -1.0470811899       -1.1098876104
 O         -3.9992522594       -1.1812216996       -1.0587305309
 C         -2.6681695394       -1.5422958996       -0.9300176214
 O         -2.2471433395       -2.2346014788       -1.8759667621
 O         -1.9943098890        0.1329864979        2.2016764998
 C         -0.5244497991       -1.4748997305        0.4414009083
 C          0.3812117006       -0.5715329897       -0.3604483312
 C          0.5440806404       -0.7236880986       -1.7330907413
 C          1.3940564002        0.1132266921       -2.4337508408
 C          2.1034801102        1.1082293216       -1.7838398901
 C          1.9439223504        1.2699585805       -0.4144832299
 C          1.0875082506        0.4325192998        0.2868409495
 H          0.9554822308        0.5699478389        1.3518771797
 N          2.6932332004        2.2591705500        0.2559327908
 S          4.3588589204        2.1069570903        0.1092900903
 O          4.9128872805        2.7691059194        1.2686432608
 O          4.7736828301        2.6181462614       -1.1721721093
 C          4.6364102206        0.3465433203        0.1877214488
 C          4.4956590809       -0.2794737607        1.4105766884
 C          4.6126769211       -1.6581560908        1.4754281872
 C          4.8571157509       -2.3845508098        0.3198352166
 C          4.9993770606       -1.7409403388       -0.8992214929
 C          4.8865012405       -0.3616353287       -0.9698422518
 H          4.9908763803        0.1766608920       -1.8972642514
 H          5.1907449005       -2.3086037080       -1.7953723934
 H          4.9369361211       -3.4588439798        0.3717863157
 H          4.5067833413       -2.1621035916        2.4230174168
 H          4.3097343410        0.3189088185        2.2883665889
 H          2.4391910006        2.3571026292        1.2288803709
 H          2.7793327700        1.7606586021       -2.3130145397
 H          1.5083089500       -0.0123095270       -3.4997228809
 H         -0.0175976696       -1.4880969482       -2.2464697918
 H         -0.3490158890       -1.2576457013        1.5036078984
 C         -0.2066614290       -2.9361377603        0.1932133770
 C          1.0963336911       -3.4792275805        0.6968645963
 C         -0.1892816187       -3.8893075912        1.3485451962
 H         -0.5519961686       -4.8939857911        1.1912486655
 H         -0.4153132186       -3.4937836220        2.3281822966
 H          1.6190879511       -4.2024727800        0.0908869857
 H          1.7456351311       -2.8003399909        1.2293142668
 H         -0.5776731592       -3.3076891695       -0.7522742132
