  62
        -98.93362652
 C         -2.0508483291       -1.2888296030        0.0438296627
 C         -2.3636200472       -0.1086729466       -0.6748043560
 C         -3.7854065994        0.2888401126       -0.6884349584
 C         -4.6958489758       -0.4626373927       -0.0487657490
 C         -6.1895720061       -0.2690606236        0.0257863441
 C         -6.7061748835        1.1550824085        0.2752780613
 C         -5.7950084109        2.0355199895        1.1430741580
 H         -6.3906530896        2.4832830801        1.9408163830
 H         -5.0233592655        1.4259462459        1.6164932659
 C         -5.1363338850        3.1718340868        0.3567726975
 H         -4.8210561779        3.9477317111        1.0586303747
 H         -5.8819081621        3.6156671503       -0.3067400111
 C         -3.9079811975        2.7794233125       -0.4636940893
 H         -3.6126952586        3.6449745750       -1.0618845449
 H         -3.0712054508        2.5540752350        0.2036834904
 C         -4.0952268384        1.5743261662       -1.3998111844
 H         -5.0914064544        1.5643865905       -1.8355782502
 H         -3.3619529695        1.6601800229       -2.2064067101
 H         -7.6812371857        1.0569467109        0.7554611893
 H         -6.8757657643        1.6537504768       -0.6781058819
 H         -6.6294605884       -0.6517646132       -0.8997605240
 H         -6.5203262603       -0.9250738806        0.8345358681
 O         -4.3504567551       -1.5905409904        0.6342432468
 C         -3.0364899493       -2.0143571209        0.7183181950
 O         -2.8754792164       -3.0369285211        1.4140250656
 H          1.1387720451       -0.3664738655       -1.3425435196
 C          1.1288207179       -0.0471053262       -0.3121919065
 C          0.2846633611       -0.6729353277        0.5915600936
 C          0.2656159292       -0.2227563602        1.9077708351
 C          1.0663724229        0.8314602515        2.3070480244
 C          1.8966683405        1.4638671408        1.3988275940
 C          1.9180650766        1.0253169323        0.0815848642
 N          2.7496315312        1.6747366646       -0.8510081936
 S          4.3806345740        1.7790016589       -0.4987398114
 O          4.5851780643        2.7346382949        0.5602734788
 O          5.0299162790        2.0700532326       -1.7567151644
 C          4.8142037320        0.1426694520        0.0614187943
 C          5.0306539672       -0.8361374953       -0.8884163679
 C          5.2912606201       -2.1307842716       -0.4702879843
 C          5.3187568172       -2.4250736664        0.8845996090
 C          5.0983413205       -1.4313704465        1.8256113711
 C          4.8420041925       -0.1332806913        1.4133639884
 H          4.6711615818        0.6678187016        2.1131508970
 H          5.1217508157       -1.6633018881        2.8781980925
 H          5.5152027434       -3.4349666628        1.2086361391
 H          5.4669704982       -2.9053106181       -1.1996204385
 H          5.0068590035       -0.5647530214       -1.9317234300
 H          2.6071885395        1.3607443220       -1.7997999853
 H          2.5206052183        2.2946095735        1.6869208831
 H          1.0385860473        1.1698061854        3.3319236685
 H         -0.3950820939       -0.7059935527        2.6149081292
 C         -0.6275061005       -1.8040831242        0.1893025681
 H         -0.6730756732       -2.5157679421        1.0290048049
 C         -0.1098208541       -2.5858859029       -1.0091299221
 C         -1.0158569513       -3.5202914156       -1.7526536181
 C         -0.5046916706       -2.2813528719       -2.4215258933
 H          0.2428824160       -2.3906955872       -3.1941387254
 H         -1.1899698685       -1.4664124806       -2.5919631907
 H         -2.0533271352       -3.5488063369       -1.4520508542
 H         -0.6260520556       -4.4765453285       -2.0671282428
 H          0.9097962321       -2.9255341731       -0.8527314161
 O         -1.5199200837        0.5868982425       -1.2951566041
