  62
        -98.93839942
 C         -2.4758487201       -1.0216994615       -0.4975193685
 C         -3.1927052702       -0.3039039014        0.4950392713
 C         -3.5328727307        1.0891337784        0.1874144708
 C         -3.1591969210        1.6043093681       -0.9975721394
 C         -3.3697008814        3.0296496679       -1.4184160499
 C         -2.1632986817        3.9003865684       -1.0409658303
 C         -1.7112118015        3.7376025391        0.4104979797
 H         -1.3113242312        2.7291339592        0.5454221200
 H         -0.8813523617        4.4298739794        0.5690538794
 C         -2.8063484215        4.0026154391        1.4534492897
 H         -2.3872172117        4.6216082495        2.2493840894
 H         -3.6210484317        4.5669129687        0.9981263196
 C         -3.3703910411        2.7453098391        2.1178165802
 H         -2.5484979708        2.1250650895        2.4850192404
 H         -3.9617319611        3.0540248693        2.9839919601
 C         -4.2716051609        1.8727184985        1.2354028906
 H         -4.7508869606        1.1305431186        1.8804307609
 H         -5.0496821011        2.4880522381        0.7793068004
 H         -1.3248311917        3.6286899384       -1.6870867703
 H         -2.4183904920        4.9448011082       -1.2312850507
 H         -3.4987173815        3.0531997074       -2.5018792599
 H         -4.2716671215        3.4130845777       -0.9450226900
 O         -2.5023147308        0.8826984880       -1.9384538392
 C         -2.1147137204       -0.4363465418       -1.7120210488
 O         -1.5003386403       -0.9375571520       -2.6711855386
 O         -3.5344046300       -0.8173406811        1.5952089815
 C         -2.0572118096       -2.4278774212       -0.1052652080
 C         -0.8729394595       -2.3629365205        0.8282609318
 C         -0.7851772092       -3.1973798101        1.9363974621
 C          0.3154418309       -3.1391763294        2.7728736620
 C          1.3460131806       -2.2527790292        2.5194469216
 C          1.2586622702       -1.3991659296        1.4242204413
 C          0.1539183402       -1.4616553203        0.5881568714
 H          0.0972950799       -0.7987747006       -0.2632238688
 N          2.2635600999       -0.4515525694        1.1750811809
 S          2.5300403896        0.0633847701       -0.4106084193
 O          1.5611076892        1.0792303397       -0.7355305596
 O          2.6091587399       -1.0796715502       -1.2915145489
 C          4.1417461994        0.8046677907       -0.2292672097
 C          4.2313397990        2.1069172909        0.2245829698
 C          5.4851636588        2.6724825814        0.3944564395
 C          6.6221902390        1.9306976116        0.1102569697
 C          6.5167597894        0.6254868614       -0.3464149998
 C          5.2657782596        0.0536964310       -0.5175049695
 H          5.1338199399       -0.9530479692       -0.8800955591
 H          7.4019112096        0.0523385316       -0.5703491197
 H          7.5965608189        2.3738253220        0.2422043195
 H          5.5703361285        3.6880647815        0.7457800891
 H          3.3194827988        2.6460854307        0.4225235697
 H          3.1262683500       -0.6444135689        1.6650356709
 H          2.2056229606       -2.2078328687        3.1703226615
 H          0.3734050912       -3.7926432391        3.6299812923
 H         -1.5932568889       -3.8823105503        2.1468677525
 H         -2.9032085094       -2.8359606513        0.4730283422
 C         -1.8137805394       -3.3662815516       -1.2759298677
 C         -0.4494851893       -3.6647526213       -1.8131654477
 C         -1.2000376889       -4.7180585013       -1.0579292673
 H         -1.6000925487       -5.5570531516       -1.6067446169
 H         -0.8553050388       -4.9596233108       -0.0641756272
 H         -0.3456344894       -3.7571125917       -2.8835224977
 H          0.4000923306       -3.1882645309       -1.3465474480
 H         -2.6105640495       -3.3056863621       -2.0101089377
