  62
        -98.94182772
 C          2.4814320181        0.9063684158        0.2650000550
 C          1.8862883710        0.0736821016       -0.7150680440
 C          2.2741475451       -1.3430420493       -0.6636111290
 C          3.1501219142       -1.7717935510        0.2619258113
 C          3.6430520828       -3.1835714260        0.4287479519
 C          2.7109029673       -4.0715124621        1.2652835863
 C          1.4037131722       -4.4739559323        0.5804390093
 H          1.6249673020       -4.9076659772       -0.3950051618
 H          0.9514922671       -5.2577374138        1.1912205055
 C          0.3936178441       -3.3284918326        0.4191319684
 H          0.6664742043       -2.5079899044        1.0874582451
 H         -0.5990918726       -3.6685566268        0.7226910994
 C          0.2705167416       -2.7888188702       -1.0057379666
 H         -0.1348392157       -3.5661406604       -1.6559466807
 H         -0.4353302228       -1.9544139068       -0.9965142615
 C          1.5885241357       -2.2842438604       -1.6064321837
 H          2.2392913562       -3.1221020151       -1.8539174058
 H          1.3582555045       -1.7328715218       -2.5208186694
 H          2.4876472362       -3.5566935185        2.2029710728
 H          3.2626575253       -4.9817696144        1.5110160120
 H          3.7987024963       -3.6367971139       -0.5504063311
 H          4.6061837502       -3.1195207949        0.9398520724
 O          3.7102653193       -0.9370943276        1.1784371919
 C          3.3612786098        0.4039466438        1.2266710074
 O          3.8904020549        1.0355680550        2.1636710716
 H          0.2221972077        1.0326222234        1.6368349087
 C         -0.2093542506        1.7723385224        0.9725721064
 C          0.6376829683        2.5713295723        0.2130655473
 C          0.0704559973        3.5125310896       -0.6353031646
 C         -1.3051944126        3.6485979089       -0.7102424361
 C         -2.1434879246        2.8504987992        0.0450526267
 C         -1.5882651700        1.8896630579        0.8828441388
 N         -2.4111357221        1.0684017536        1.6708377562
 S         -3.8373021867        0.3906836174        1.1333829203
 O         -4.7406779058        1.4406771492        0.7332506955
 O         -4.2739631866       -0.4457352123        2.2280256999
 C         -3.4592017014       -0.6368237703       -0.2764094836
 C         -3.1660063159       -0.0505174310       -1.4918418852
 C         -2.8999202524       -0.8662521822       -2.5802472485
 C         -2.9408063115       -2.2446798466       -2.4402501410
 C         -3.2365709847       -2.8183121934       -1.2131429635
 C         -3.4925906229       -2.0085989109       -0.1187480345
 H         -3.7317479874       -2.4105627411        0.8526415551
 H         -3.2661597087       -3.8906626302       -1.1056025642
 H         -2.7388620471       -2.8741533671       -3.2924072523
 H         -2.6599005410       -0.4203680995       -3.5319651468
 H         -3.1496385186        1.0232746988       -1.5755095326
 H         -1.9060480265        0.4103672009        2.2446410009
 H         -3.2155317816        2.9546549287       -0.0020184722
 H         -1.7324839095        4.3887555034       -1.3700391724
 H          0.7007579969        4.1324003057       -1.2507400582
 C          2.1278190099        2.3790139891        0.3730504770
 H          2.3877816650        2.6594578136        1.4080498253
 C          2.9508228639        3.2802338159       -0.5372529508
 C          4.2838717976        2.8445608681       -1.0663812007
 C          3.1189626587        2.9863637202       -1.9967774033
 H          3.1173386365        3.8133850829       -2.6916992950
 H          2.6520998189        2.0921255800       -2.3777849124
 H          4.6252542790        1.8503249525       -0.8166266502
 H          5.0765395475        3.5763141817       -1.1145934639
 H          2.8724137424        4.3253471921       -0.2540892539
 O          1.0697122986        0.4728824245       -1.5831112319
