  62
        -98.93297671
 C         -1.1918018358       -1.6571892791       -0.4297954299
 C         -1.1718072020       -0.2456915933       -0.2999638821
 C         -2.3147249916        0.3859919467        0.3985645398
 C         -3.3393447932       -0.3769648596        0.8146129261
 C         -4.6151348803        0.0459160836        1.4934165722
 C         -5.6062038237        0.7249733001        0.5344624852
 C         -4.9869423631        1.7484468983       -0.4134199332
 H         -4.2117522900        1.2622019629       -1.0079662077
 H         -5.7688258913        2.0764722256       -1.1033471703
 C         -4.4060232367        2.9899637590        0.2589280875
 H         -4.0905944687        3.6712557420       -0.5351494020
 H         -5.1910014253        3.4885832540        0.8318977970
 C         -3.2080791349        2.7506436130        1.1811566205
 H         -3.5235464280        2.3564526105        2.1436944623
 H         -2.7511019929        3.7241332729        1.3831116303
 C         -2.1135482734        1.8703146597        0.5867145505
 H         -1.8252706063        2.2674406277       -0.3930743224
 H         -1.2149692992        1.9544944409        1.2126515372
 H         -6.0727533732       -0.0532361532       -0.0745158203
 H         -6.3877847858        1.2012857233        1.1288907121
 H         -5.0767869079       -0.8638381005        1.8842147426
 H         -4.3902645811        0.6897762431        2.3389953655
 O         -3.3523335366       -1.7253000196        0.6126900022
 C         -2.2889376048       -2.3907734551        0.0431784433
 O         -2.4412708686       -3.6301594814        0.0016456315
 H          1.5450170106       -0.4409759610       -0.3245582522
 C          1.8562463362       -1.3530918652        0.1530873912
 C          1.1383729131       -2.5185979914       -0.0669671202
 C          1.5492733931       -3.6840170049        0.5725905109
 C          2.6446841676       -3.6755789315        1.4175483738
 C          3.3368506949       -2.5022100699        1.6605359449
 C          2.9305246098       -1.3326210085        1.0299436787
 N          3.5972370062       -0.1159060831        1.2438536971
 S          2.6865653181        1.2827788501        1.4358817044
 O          3.5717494770        2.1847279900        2.1507138919
 O          1.4298151764        1.0113109570        2.0962543322
 C          2.4485470060        1.9398712207       -0.2007148995
 C          1.4931690643        2.9213597576       -0.3626117501
 C          1.3107342034        3.4806598762       -1.6164107555
 C          2.0873494078        3.0533453191       -2.6814596758
 C          3.0498211042        2.0732996385       -2.4993076399
 C          3.2378826777        1.5101017937       -1.2471123242
 H          3.9687811028        0.7365486291       -1.0787954767
 H          3.6508774782        1.7398471552       -3.3301344082
 H          1.9374015532        3.4831581979       -3.6595521553
 H          0.5587119612        4.2405547572       -1.7588644476
 H          0.9009106448        3.2160529480        0.4887497037
 H          4.3489611796       -0.1522069859        1.9171862643
 H          4.1790410148       -2.4896621353        2.3360706253
 H          2.9537992987       -4.5880922596        1.9048192899
 H          0.9941842998       -4.5975101947        0.4127593472
 C         -0.0682913869       -2.5309358781       -0.9780024310
 H         -0.4930385916       -3.5457592977       -0.9270391302
 C          0.3518713255       -2.3545495375       -2.4333496875
 C         -0.5934757850       -1.8455229941       -3.4786288273
 C          0.6301163699       -1.0557277880       -3.1234002839
 H          1.4456210078       -1.0331178529       -3.8314719049
 H          0.4992061633       -0.1423691650       -2.5682836005
 H         -0.6367785407       -2.3525119600       -4.4312305424
 H         -1.5483760799       -1.4707684131       -3.1379317585
 H          0.9855210184       -3.1846598285       -2.7359471469
 O         -0.2673751694        0.5081661560       -0.7421744551
