  62
        -98.94328862
 C         -1.2219525797       -0.7218225408        0.6026635613
 C         -1.9216827398       -0.5069499714       -0.6103952187
 C         -2.8935991299        0.5978136585       -0.6015667792
 C         -3.0012170499        1.3789383890        0.4875383404
 C         -3.9833390599        2.5023559690        0.6468799399
 C         -5.2959822799        2.0102583792        1.2731244202
 C         -5.8721978898        0.7634903789        0.6018194209
 H         -5.1950853197       -0.0769597410        0.7703748112
 H         -6.8108145898        0.5266910490        1.1073240810
 C         -6.1258409799        0.9134062081       -0.9046741392
 H         -7.1084979099        0.4980587579       -1.1375756989
 H         -6.1487622100        1.9702425680       -1.1729780497
 C         -5.1133188199        0.1879394078       -1.7928365289
 H         -5.5028629699        0.1769310072       -2.8141732589
 H         -5.0193472298       -0.8510902321       -1.4672728184
 C         -3.7101834699        0.8057794078       -1.8459222693
 H         -3.1570872999        0.3123751075       -2.6508911991
 H         -3.7835544700        1.8690645777       -2.0846117798
 H         -6.0249507599        2.8212638992        1.2260400399
 H         -5.1119081198        1.7795179498        2.3250376403
 H         -4.1766018400        2.9486655885       -0.3268970903
 H         -3.5381331300        3.2570291394        1.2978672195
 O         -2.2420606998        1.2031121096        1.5992033105
 C         -1.3326609297        0.1614687497        1.6789444709
 O         -0.6817736396        0.1321553603        2.7436811209
 O         -1.7545259598       -1.1934519819       -1.6512543184
 C         -0.1903646796       -1.8278751506        0.7413661018
 C          0.7701090803       -1.7807650911       -0.4226053182
 C          1.1717605204       -2.8893461015       -1.1554137677
 C          2.0864491903       -2.7487581419       -2.1855570278
 C          2.6339208602       -1.5164016520       -2.4921316185
 C          2.2344297802       -0.3998809917       -1.7657081090
 C          1.3104727502       -0.5429318712       -0.7455269089
 H          0.9805514302        0.3339733490       -0.2096480593
 N          2.7548479201        0.8740018082       -2.0387974396
 S          2.9776469400        1.9619190389       -0.7915053302
 O          1.7165055900        2.5245179190       -0.3753879804
 O          3.9446622599        2.9048190487       -1.3129363407
 C          3.7181690402        1.0074578496        0.5221781102
 C          4.9994194702        0.5330035396        0.3137710704
 C          5.5943457103       -0.2502826199        1.2883534708
 C          4.8987086504       -0.5510674094        2.4499247509
 C          3.6168931704       -0.0627721494        2.6475093908
 C          3.0177319203        0.7255391701        1.6768860304
 H          2.0193396602        1.1139866401        1.8089665403
 H          3.0686704504       -0.2920289490        3.5476889409
 H          5.3573913705       -1.1664629190        3.2076306912
 H          6.5938072603       -0.6257211299        1.1395332509
 H          5.5113949301        0.7977545692       -0.5969791397
 H          3.5065238300        0.8991442880       -2.7113789897
 H          3.3492205702       -1.4124633323       -3.2933150186
 H          2.3829523904       -3.6160240821       -2.7556753474
 H          0.7552470505       -3.8588370014       -0.9374131072
 H          0.3862497404       -1.5566630301        1.6422681317
 C         -0.7707269095       -3.2099143905        1.0040175525
 C         -2.1577310194       -3.3787531604        1.5475259427
 C         -1.8446424995       -3.8073135110        0.1470208729
 H         -1.8008278494       -4.8658341211       -0.0646444266
 H         -2.2156329196       -3.2110568415       -0.6708641474
 H         -2.3265889693       -4.1380044900        2.2966213631
 H         -2.7515804495       -2.4867796204        1.6888100523
 H         -0.0229685294       -3.8948801003        1.3915538328
