  62
        -98.94628465
 C         -1.3659735330       -1.2363191552        0.5193590090
 C         -1.6431211429       -0.4154878096       -0.6014980821
 C         -2.3981876151        0.8125235089       -0.3155889993
 C         -2.6881697311        1.1414941228        0.9557456052
 C         -3.4113204892        2.3814358340        1.4077244354
 C         -4.9407565906        2.2614679520        1.3637775661
 C         -5.5513622815        2.2750356824       -0.0380987982
 H         -6.6289594914        2.4015921727        0.0836523700
 H         -5.1823329499        3.1429899606       -0.5853781308
 C         -5.2925793352        1.0002196009       -0.8532532467
 H         -4.9780965128        0.1969719620       -0.1828640187
 H         -6.2227971851        0.6757370179       -1.3250493732
 C         -4.2524780529        1.1559644570       -1.9628099449
 H         -4.6191582684        1.8628671254       -2.7102605980
 H         -4.1263809689        0.1860227096       -2.4502810149
 C         -2.8739621140        1.6274342135       -1.4799477991
 H         -2.1602441777        1.4830370558       -2.2938082286
 H         -2.9100408686        2.6854875864       -1.2212152462
 H         -5.2347822551        1.3453224004        1.8813090987
 H         -5.3504570900        3.1049318010        1.9244110879
 H         -3.1096822898        2.5588274600        2.4425014936
 H         -3.0977881055        3.2334492099        0.8034185614
 O         -2.3176513680        0.3703988033        2.0138702205
 C         -1.6778835885       -0.8430399908        1.8207414504
 O         -1.4271507834       -1.4630633419        2.8759701116
 H          1.1375821822       -1.2141728010        1.7559244837
 C          1.5617667270       -1.5075937061        0.8033041257
 C          0.7851842029       -2.2529342609       -0.0768298488
 C          1.3350162431       -2.6243791689       -1.2951838119
 C          2.6265454896       -2.2457006084       -1.6238281025
 C          3.3931270897       -1.4975862111       -0.7498001448
 C          2.8533236099       -1.1305332994        0.4769565063
 N          3.6202184888       -0.3518039328        1.3690005535
 S          4.1863269675        1.0983292599        0.7467348248
 O          5.3728938805        0.8496851122       -0.0322035581
 O          4.3509846281        1.9705805666        1.8881359315
 C          2.8764796446        1.6858954542       -0.3122281861
 C          3.0558766751        1.7184318947       -1.6795987914
 C          2.0084115382        2.1415552821       -2.4818437731
 C          0.8056783190        2.5183214599       -1.9061625009
 C          0.6395738580        2.4767990806       -0.5306518156
 C          1.6824068223        2.0534151593        0.2757407060
 H          1.5845178890        2.0134929151        1.3496556560
 H         -0.3007642988        2.7595213448       -0.0846803810
 H         -0.0101038161        2.8456173409       -2.5307013606
 H          2.1305854483        2.1716382459       -3.5524410457
 H          4.0076048058        1.4173588128       -2.0857847747
 H          3.1552324146       -0.1897211964        2.2511324060
 H          4.3958609063       -1.1864424948       -0.9942659304
 H          3.0400636692       -2.5347465501       -2.5777782594
 H          0.7493981533       -3.1975839693       -1.9941636353
 C         -0.6320577291       -2.5568224160        0.3444176805
 H         -0.5953958796       -3.0174329215        1.3418988233
 C         -1.3742246288       -3.4823705172       -0.5939300197
 C         -1.1160265984       -4.9570931155       -0.5375931197
 C         -2.4144911992       -4.4035701134       -0.0342823714
 H         -3.3101616000       -4.5809333272       -0.6105498131
 H         -2.5816414692       -4.3791131114        1.0330847743
 H         -1.1215385782       -5.5184283957       -1.4593974396
 H         -0.4006445748       -5.3114699998        0.1892128041
 H         -1.5745621243       -3.0345593634       -1.5593566613
 O         -1.2886210683       -0.6850793666       -1.7759138308
