  62
        -98.94511602
 C         -2.2296824998       -0.8045973337       -0.0143859333
 C         -3.1895207177       -0.6074398430        1.0112024635
 C         -3.9950820489        0.6162809794        0.9197787230
 C         -3.7576207142        1.4845770439       -0.0801928590
 C         -4.5268912037        2.7511347752       -0.3171529590
 C         -5.7166846708        2.5122919065       -1.2574188040
 C         -6.5833247969        1.3157207363       -0.8647759384
 H         -7.4074051873        1.2631585108       -1.5794911064
 H         -5.9987935014        0.4001350315       -0.9801574202
 C         -7.1465902756        1.3804260814        0.5617325291
 H         -8.2011831608        1.0984134129        0.5346437422
 H         -7.0945137171        2.4040365853        0.9342747117
 C         -6.4602327005        0.4433985417        1.5573121832
 H         -7.0691276520        0.4065899206        2.4644245579
 H         -6.4262874975       -0.5679168280        1.1445746362
 C         -5.0393871019        0.8407375866        1.9771577347
 H         -5.0311719656        1.8802337979        2.3111875807
 H         -4.7517503961        0.2064509500        2.8205952509
 H         -5.3316295662        2.3409020722       -2.2653809441
 H         -6.3276705360        3.4165834721       -1.2765750684
 H         -4.8764961135        3.1408303179        0.6369746798
 H         -3.8545928947        3.4804170416       -0.7725600582
 O         -2.8075727905        1.2793853922       -1.0268531153
 C         -2.0248962509        0.1335312424       -1.0263288158
 O         -1.2119918768        0.0808357263       -1.9703036058
 H          0.7623676870       -1.4247440461       -1.5526869127
 C          0.9894893471       -1.3225767630       -0.5032789252
 C          0.0258981007       -1.6318289039        0.4442971720
 C          0.3344285042       -1.4561137829        1.7904784161
 C          1.5757443446       -0.9849291014        2.1745130646
 C          2.5306290929       -0.6652634485        1.2246870931
 C          2.2260940437       -0.8211271227       -0.1202800788
 N          3.1827991555       -0.4710209318       -1.0917630428
 S          3.8506612488        1.0682795515       -0.9823106017
 O          2.9605503784        1.9948417641       -0.3210872198
 O          4.2527396927        1.4073339659       -2.3303873461
 C          5.3135324466        0.8203730483        0.0050734550
 C          6.2381513000       -0.1133921447       -0.4205118911
 C          7.3842758232       -0.3116360200        0.3326721031
 C          7.5874631933        0.4249692077        1.4902449190
 C          6.6518372330        1.3615295314        1.9020776676
 C          5.5025445388        1.5637865608        1.1536107569
 H          4.7445074765        2.2767702364        1.4369998907
 H          6.8111039778        1.9341847443        2.8016578496
 H          8.4804158946        0.2689060260        2.0746963164
 H          8.1143533461       -1.0386729216        0.0154560514
 H          6.0441491513       -0.6610564082       -1.3274600308
 H          2.8636776937       -0.6391407577       -2.0358943551
 H          3.4956375931       -0.2825289890        1.5144092503
 H          1.8016569260       -0.8584450132        3.2224096568
 H         -0.4211284594       -1.6773457958        2.5312693121
 C         -1.3681855598       -2.0562698262        0.0545283109
 H         -1.7865060099       -2.6498565811        0.8782680855
 C         -1.4309453926       -2.8764155007       -1.2164264955
 C         -0.9301469676       -4.2888587147       -1.1995358537
 C         -2.3997474070       -4.0160377895       -1.3038054180
 H         -2.8943138370       -4.1992077047       -2.2460202947
 H         -3.0189800312       -4.2128587512       -0.4409560744
 H         -0.4133670356       -4.6635307559       -2.0697364715
 H         -0.5505471764       -4.6695359566       -0.2635836855
 H         -1.2756936232       -2.2933964350       -2.1158075672
 O         -3.3640722635       -1.4201966482        1.9575253446
