  62
        -98.93731897
 C         -1.6052930903       -0.5741869196        0.1773911306
 C         -2.7498079303       -0.5928903995        1.0185506206
 C         -3.8741024003        0.2699126405        0.6300525105
 C         -3.7585787803        1.0334922704       -0.4710919797
 C         -4.8365154702        1.9048369803       -1.0499876298
 C         -5.8633748203        1.0383056602       -1.8067081497
 C         -7.2596140803        1.0282743404       -1.1842652997
 H         -7.7583417802        1.9717951604       -1.4159935398
 H         -7.8268740903        0.2291253603       -1.6662038495
 C         -7.3124192003        0.8316124806        0.3339046504
 H         -7.0863799402        1.7743947907        0.8344354502
 H         -8.3461426703        0.5859952607        0.5864828504
 C         -6.3943271703       -0.2583467393        0.9022565805
 H         -6.1613562903       -1.0013668295        0.1392101406
 H         -6.9352920603       -0.7772075792        1.6962367406
 C         -5.0846893103        0.2645257907        1.5217918605
 H         -5.2463433903        1.2686720108        1.9238403703
 H         -4.8115073903       -0.3836901192        2.3596933306
 H         -5.9503267803        1.3918928601       -2.8352189497
 H         -5.4788474003        0.0174692502       -1.8571389495
 H         -5.3211332602        2.4676931404       -0.2552442099
 H         -4.3559704602        2.6069002902       -1.7318192099
 O         -2.6440218203        1.0393861602       -1.2433101797
 C         -1.5444212503        0.2449637802       -0.9495108995
 O         -0.6087176003        0.3837242900       -1.7635531696
 O         -2.8269280004       -1.3113655193        2.0509932807
 C         -0.4668271604       -1.5011307296        0.5675846207
 C          0.6519646197       -0.7876519995        1.2874253506
 C          1.1405948096       -1.2601161994        2.4998381807
 C          2.2060354697       -0.6353564993        3.1255369806
 C          2.8035171197        0.4767448906        2.5587132904
 C          2.3135404597        0.9616875304        1.3543108503
 C          1.2541998697        0.3276327903        0.7234593004
 H          0.8959462397        0.7024090502       -0.2236449796
 N          2.9296525898        2.0869269503        0.7532443002
 S          4.4411844098        1.7505696001        0.1060967602
 O          5.3594621998        1.4992667203        1.1874542103
 O          4.7612273998        2.8621327400       -0.7603910599
 C          4.1884075897        0.2634824900       -0.8443554495
 C          4.3963800197       -0.9631761399       -0.2469499594
 C          4.1055934196       -2.1123595200       -0.9635489792
 C          3.6083892896       -2.0145828202       -2.2539087292
 C          3.4024013797       -0.7747334203       -2.8386987194
 C          3.6896934997        0.3778102298       -2.1262762896
 H          3.5424947797        1.3602866297       -2.5462376197
 H          3.0089043897       -0.7011631404       -3.8399446894
 H          3.3784540796       -2.9095902803       -2.8108637891
 H          4.2616796396       -3.0779782500       -0.5103450790
 H          4.7827084997       -0.9946922198        0.7585489206
 H          2.3558405698        2.4884960902        0.0235088301
 H          3.6451134997        0.9674693806        3.0199550303
 H          2.5751552197       -1.0172311992        4.0650700207
 H          0.6754971796       -2.1210929393        2.9566082008
 H         -0.9135999104       -2.2170635695        1.2703414208
 C          0.1051751796       -2.2740320798       -0.6070151592
 C          0.7156348596       -3.6202143998       -0.3659374789
 C         -0.5970727604       -3.5095329199       -1.0803818990
 H         -0.6306388505       -3.7071487100       -2.1410563589
 H         -1.4927182205       -3.8066820097       -0.5540699689
 H          1.5876992295       -3.8971188599       -0.9361874289
 H          0.7097498095       -3.9993221297        0.6444507311
 H          0.5598302996       -1.6384507700       -1.3561609093
