  62
        -98.94042350
 C         -2.3536631802       -0.8085319585       -0.1798163097
 C         -3.5899693003       -1.1337394080        0.4281545403
 C         -4.7779740302       -0.4881113481       -0.1451264701
 C         -4.6328244499        0.3394914914       -1.1962943504
 C         -5.7482591497        1.1087656313       -1.8416344909
 C         -5.9080622495        2.4947917217       -1.2011188616
 C         -5.9653963997        2.4659570324        0.3262372885
 H         -4.9989063997        2.1336571124        0.7122559987
 H         -6.1101778495        3.4937997526        0.6658499480
 C         -7.0751383099        1.5756869529        0.9028395688
 H         -7.5769606998        2.1182465733        1.7067916485
 H         -7.8219787998        1.3707338527        0.1350731188
 C         -6.5840590601        0.2541463031        1.4968229895
 H         -5.7695638002        0.4483826432        2.1993021894
 H         -7.4060656303       -0.1899920665        2.0644083196
 C         -6.1070997003       -0.7961177775        0.4854898800
 H         -5.9715550205       -1.7386134573        1.0239931104
 H         -6.8716195302       -0.9445549277       -0.2796168400
 H         -6.8178697494        2.9531037816       -1.5928730218
 H         -5.0588697194        3.1136562414       -1.4999126918
 H         -5.5128073997        1.2322609908       -2.8999576109
 H         -6.6738745199        0.5442615515       -1.7483038407
 O         -3.4310377898        0.6116262209       -1.7661955105
 C         -2.2599927400        0.0603545710       -1.2668887701
 O         -1.2300273499        0.4143244205       -1.8711609102
 H          1.5401992998       -0.8668654893       -0.3501432494
 C          1.1399809299       -0.1809280489        0.3770002702
 C         -0.1556308302       -0.3213023584        0.8455530602
 C         -0.6285440201        0.5927117321        1.7850613297
 C          0.1734675701        1.6220609821        2.2359455793
 C          1.4685315501        1.7578172217        1.7667544693
 C          1.9492688200        0.8539075712        0.8275083198
 N          3.2467869301        0.9896259107        0.3094142398
 S          4.1216651498       -0.3941771597       -0.0947207995
 O          3.7131235899       -0.8541321802       -1.3977576993
 O          4.0435967496       -1.3605598392        0.9782722910
 C          5.7641778000        0.2941198000       -0.1905422697
 C          6.1193892302        0.9923785794       -1.3294304400
 C          7.3816458603        1.5594974891       -1.4011349202
 C          8.2631195502        1.4196798894       -0.3391798600
 C          7.8935056000        0.7142167500        0.7959907403
 C          6.6316458699        0.1458096803        0.8750040604
 H          6.3031603697       -0.4172291192        1.7337241107
 H          8.5824503099        0.6045799103        1.6179221104
 H          9.2452552103        1.8614444892       -0.3983125102
 H          7.6729595405        2.1067915186       -2.2830939904
 H          5.4040223203        1.0668661491       -2.1320142901
 H          3.8109482002        1.6492802608        0.8273739995
 H          2.0970400302        2.5623257217        2.1173269890
 H         -0.2085766999        2.3224687426        2.9635144089
 H         -1.6394520302        0.4822488024        2.1541351997
 C         -1.0803796604       -1.4180963285        0.3789424006
 H         -1.3950607006       -1.9976054880        1.2599758109
 C         -0.4498058505       -2.3625757391       -0.6211636689
 C          0.4654849793       -3.4508164690       -0.1483160483
 C         -0.8989724607       -3.7909700890       -0.6661225282
 H         -0.9807485508       -4.2754265795       -1.6274706480
 H         -1.6535956209       -4.0961892185        0.0440108219
 H          1.3279103993       -3.6947343795       -0.7509604081
 H          0.6430040792       -3.5265680086        0.9141030318
 H         -0.2196926403       -1.8812136896       -1.5657157591
 O         -3.6934768405       -1.9208111875        1.4075217607
