  62
        -98.93666627
 C         -2.1354808988       -0.9391571923        0.1942765801
 C         -2.6106589072       -0.0528735841        1.1865004935
 C         -2.9825658162        1.2988727525        0.7357480199
 C         -2.8133627093        1.6240540841       -0.5578647493
 C         -3.1666958146        2.9239097587       -1.2259593622
 C         -4.5755778963        2.8546294324       -1.8395651240
 C         -5.7115993721        3.2266538988       -0.8872902907
 H         -5.6826416150        4.3017675583       -0.6984844445
 H         -6.6501864932        3.0092375365       -1.4019731692
 C         -5.7065739734        2.4936413783        0.4567894396
 H         -6.7153461908        2.5470057908        0.8705099649
 H         -5.4768667453        1.4383406658        0.2993067365
 C         -4.7227513648        3.0974255363        1.4699868144
 H         -5.2424736082        3.2818928010        2.4123600511
 H         -4.3885836663        4.0687211447        1.1057238465
 C         -3.5026854084        2.2248321670        1.8018088457
 H         -2.6817132346        2.8700994247        2.1328613669
 H         -3.7421907996        1.5685906168        2.6445108732
 H         -4.7259685634        1.8394619154       -2.2157838886
 H         -4.6171731025        3.5295960576       -2.6967663205
 H         -2.4405072597        3.0659004994       -2.0293751816
 H         -3.0808757417        3.7514097462       -0.5278367916
 O         -2.3227609909        0.7478619583       -1.4778832848
 C         -1.9662433363       -0.5439671372       -1.1328255727
 O         -1.5256469088       -1.2277879474       -2.0762940858
 O         -2.7164931742       -0.3752776815        2.4020525071
 C         -1.7138167198       -2.3420549929        0.5945852032
 C         -0.2463248970       -2.5214173344        0.2912227871
 C          0.2772342898       -3.6149108357       -0.3850293431
 C          1.6294321908       -3.6789821716       -0.6776979708
 C          2.4871293218       -2.6615840027       -0.3022954056
 C          1.9756863910       -1.5739052654        0.3909107349
 C          0.6257720343       -1.5158722486        0.6905893172
 H          0.2330392876       -0.6557778426        1.2211631528
 N          2.8462454215       -0.5157233994        0.7611112258
 S          3.2217255806        0.5425287325       -0.5072607133
 O          2.2829454008        1.6474543133       -0.5029483855
 O          3.3372332307       -0.2101417407       -1.7290856514
 C          4.8295796980        1.1199242017        0.0015792996
 C          4.9539967361        2.3420604704        0.6322335402
 C          6.2087451420        2.7545855498        1.0533092134
 C          7.3102897773        1.9398495064        0.8414492890
 C          7.1689920791        0.7142075104        0.2075014022
 C          5.9175983936        0.2971329785       -0.2160851860
 H          5.7603069098       -0.6418637922       -0.7202740515
 H          8.0280483922        0.0839967471        0.0428990174
 H          8.2852467576        2.2630290498        1.1705443793
 H          6.3211337388        3.7078184557        1.5443937878
 H          4.0712281720        2.9457400366        0.7689978066
 H          2.4409548707        0.0470282699        1.4989233901
 H          3.5349394335       -2.6879579345       -0.5510971759
 H          2.0172252586       -4.5305428744       -1.2158217448
 H         -0.3770049650       -4.4111343871       -0.7005120294
 H         -1.8512646415       -2.3908990840        1.6851709048
 C         -2.6029520878       -3.3784577847       -0.0580904382
 C         -2.8268694828       -4.7045615289        0.6035556894
 C         -3.9291150328       -3.6905033338        0.5658806467
 H         -4.7743001456       -3.8675373392       -0.0820842899
 H         -4.1807436225       -3.1715435733        1.4793192435
 H         -2.9183124162       -5.5817806300       -0.0187845856
 H         -2.3336833850       -4.8811222792        1.5472883255
 H         -2.5538350460       -3.3441952946       -1.1407721621
