  62
        -98.93787922
 C          2.6172375400        1.0018203295        0.5054414396
 C          2.9007163502       -0.1844279703        1.2331113499
 C          4.2029790202       -0.8089160103        0.9835834999
 C          5.0572411801       -0.2381421904        0.1152632696
 C          6.4408170200       -0.7254731505       -0.2196589604
 C          6.4764392000       -1.8214021708       -1.2933039601
 C          5.9796215201       -3.1935810807       -0.8367948097
 H          6.4996553702       -3.4811887104        0.0774976003
 H          6.2611371300       -3.9100937309       -1.6110004695
 C          4.4625604901       -3.2757942507       -0.6167138495
 H          4.0753188801       -4.1835632008       -1.0849883192
 H          3.9758162400       -2.4307913608       -1.1096331496
 C          4.0342435603       -3.3055924703        0.8505663006
 H          4.4048820304       -4.2186925501        1.3217021608
 H          2.9420170703       -3.3264282703        0.8868144307
 C          4.5129526604       -2.1027141800        1.6739986602
 H          5.5822069304       -2.1823211799        1.8693631501
 H          3.9804346905       -2.1061882998        2.6281475103
 H          7.5139856199       -1.9240982808       -1.6195846202
 H          5.8893877998       -1.4883835010       -2.1523828101
 H          6.9305128302       -1.0856854402        0.6856034696
 H          6.9923504100        0.1401225795       -0.5929387707
 O          4.7536615899        0.8994175294       -0.5600983706
 C          3.5283109399        1.5349276093       -0.4070775807
 O          3.4055559898        2.5437039391       -1.1292434009
 O          2.1019831203       -0.6890784501        2.0674355201
 C          1.2731186200        1.6547669895        0.7775657296
 C          0.2433689099        1.2729981792       -0.2601388802
 C          0.3892543797        1.6320867488       -1.5957812803
 C         -0.5783203903        1.2871223185       -2.5220131601
 C         -1.7070763603        0.5837100786       -2.1398335998
 C         -1.8640406401        0.2225852389       -0.8087017196
 C         -0.8913071200        0.5714241892        0.1206388301
 H         -1.0100612898        0.2782634595        1.1551713402
 N         -3.0011346700       -0.5044345410       -0.4150758793
 S         -4.4867791201       -0.0212055813       -1.0611839993
 O         -4.6461747602       -0.6432374217       -2.3518056491
 O         -4.5896185202        1.4203291187       -1.0379450196
 C         -5.6220386699       -0.7450211810        0.1058563411
 C         -6.0875229898        0.0239770692        1.1557448409
 C         -6.9523055997       -0.5494659506        2.0745005212
 C         -7.3321687196       -1.8754404306        1.9300324616
 C         -6.8562895497       -2.6343961809        0.8710557518
 C         -5.9919438299       -2.0671472011       -0.0517942885
 H         -5.6040842999       -2.6150235613       -0.8946430884
 H         -7.1564101397       -3.6639947309        0.7613171321
 H         -8.0061039195       -2.3189757405        2.6458296418
 H         -7.3261753696        0.0386792696        2.8971078511
 H         -5.7737960599        1.0534922493        1.2229025106
 H         -3.0543539699       -0.6210797108        0.5875756007
 H         -2.4706947603        0.3165759083       -2.8528710996
 H         -0.4535360605        1.5709926782       -3.5565359302
 H          1.2701081197        2.1757727188       -1.9011006506
 H          0.9460121402        1.2334225098        1.7380383997
 C          1.3474264400        3.1625530296        0.9205943591
 C          0.2556415400        3.8736435097        1.6601440591
 C          1.6214851201        3.7596433700        2.2666551189
 H          2.2397434801        4.6429153800        2.3208419686
 H          1.7562825902        3.0811988602        3.0965297191
 H         -0.0690594901        4.8364092396        1.2966949889
 H         -0.5377548299        3.2732710898        2.0792317493
 H          1.7780854298        3.6568898594        0.0600654990
