  62
        -98.94452541
 C         -1.8914653145       -0.8606556062        0.4263364835
 C         -2.1741092087        0.3077714988       -0.3219980050
 C         -3.4659656674        0.9498824349       -0.0429169977
 C         -4.2769294650        0.4544704733        0.9082788250
 C         -5.6077337485        1.0184590270        1.3253696644
 C         -6.7796107292        0.5699209750        0.4413713835
 C         -6.8223305509        1.1999888060       -0.9513872608
 H         -7.8012347493        0.9699744748       -1.3767780974
 H         -6.7543184396        2.2845712720       -0.8604299579
 C         -5.7362133989        0.6921923514       -1.9099413007
 H         -5.3186429451       -0.2410534622       -1.5252401129
 H         -6.1840857646        0.4662627439       -2.8802827406
 C         -4.5958567742        1.6799019378       -2.1567723539
 H         -4.9825880993        2.5670859490       -2.6632731869
 H         -3.8681967509        1.2043304679       -2.8191819511
 C         -3.8600614056        2.1252602665       -0.8862655066
 H         -2.9458597862        2.6452478719       -1.1831375637
 H         -4.4813822518        2.8133254268       -0.3134258952
 H         -6.7503615593       -0.5181896316        0.3485040037
 H         -7.7016045666        0.8337751051        0.9645411711
 H         -5.7890229299        0.6651731496        2.3428430460
 H         -5.5571812310        2.1076321231        1.3403633271
 O         -3.9537632430       -0.6462849961        1.6362537969
 C         -2.7791111758       -1.3371352395        1.3983086008
 O         -2.6345548783       -2.3518176299        2.1089469950
 H          0.5176277027        0.7159915542       -0.2027212749
 C          1.0268645290        0.1714835581        0.5786366515
 C          0.5527716858       -1.0770785863        0.9553479856
 C          1.2135352379       -1.7602827767        1.9690164700
 C          2.3201553399       -1.2058152845        2.5892793102
 C          2.7908647104        0.0381819974        2.2095926416
 C          2.1320416559        0.7303191785        1.2018395316
 N          2.6192958299        1.9894921547        0.7913064203
 S          4.2015234595        1.9787483037        0.2335903290
 O          5.1019802821        1.9858609120        1.3593502698
 O          4.3087147678        3.1023599958       -0.6698284395
 C          4.3422905786        0.4348581098       -0.6491067711
 C          5.0736750878       -0.6032535735       -0.1096400469
 C          5.0992902018       -1.8192663992       -0.7735108562
 C          4.3923702134       -1.9762715233       -1.9551983491
 C          3.6642189642       -0.9223380256       -2.4855669308
 C          3.6338296638        0.2949925180       -1.8259891614
 H          3.0785424593        1.1354647607       -2.2113633183
 H          3.1156811938       -1.0441608479       -3.4059788898
 H          4.4084750141       -2.9256973709       -2.4668951154
 H          5.6649305373       -2.6407724464       -0.3645796771
 H          5.6064555085       -0.4386047126        0.8124100365
 H          2.0172238866        2.4358855584        0.1133757911
 H          3.6561653152        0.4838827480        2.6732803872
 H          2.8224724508       -1.7484784521        3.3753545934
 H          0.8474942932       -2.7288234217        2.2769697126
 C         -0.6298465464       -1.6916102508        0.2460208101
 H         -0.8431674270       -2.6556268650        0.7262273138
 C         -0.2914029162       -1.9463600780       -1.2113495989
 C          0.5764176391       -3.1160107614       -1.5598671697
 C         -0.8820153949       -3.1348800387       -1.9051948864
 H         -1.1717588120       -3.0350598371       -2.9405289358
 H         -1.5358011728       -3.7754054890       -1.3307960140
 H          1.2930041673       -3.0043339830       -2.3582037891
 H          0.9133817496       -3.7463407329       -0.7512237323
 H         -0.1749281804       -1.0400142350       -1.7901213367
 O         -1.4058023068        0.8157328335       -1.1832856712
