  62
        -98.94091294
 C          2.3002963523       -0.4605988874       -0.2238032413
 C          3.5553535746       -0.9865933371       -0.6130845470
 C          4.6756160580       -0.0371422921       -0.6201458949
 C          4.4503100822        1.2467883685       -0.2857724986
 C          5.5091711517        2.3070082574       -0.2000617245
 C          6.0987085029        2.3905209468        1.2149046343
 C          6.5167664320        1.0376554134        1.7911173950
 H          6.9452396153        1.2235512180        2.7783840102
 H          5.6257239075        0.4229388985        1.9386367253
 C          7.5280549785        0.2663530298        0.9315357773
 H          8.0098331937        0.9456452427        0.2274519896
 H          8.3083339289       -0.1327818472        1.5829167587
 C          6.9362919822       -0.9194066300        0.1674171776
 H          6.3715947942       -1.5535011554        0.8555359183
 H          7.7627041788       -1.5175243964       -0.2254937094
 C          6.0269086674       -0.5633510440       -1.0153749977
 H          6.5381148455        0.1419611161       -1.6735264822
 H          5.8367871294       -1.4827939050       -1.5767442027
 H          6.9604431618        3.0600006811        1.1905806159
 H          5.3473442009        2.8269826859        1.8771322750
 H          6.2951181191        2.0869513366       -0.9198860122
 H          5.0551284764        3.2667471287       -0.4522460813
 O          3.2253586726        1.7204991422        0.0610218554
 C          2.1214026904        0.8815316935        0.1096098569
 O          1.0633311653        1.4439865495        0.4528697003
 H         -1.5802618746       -1.0010967724        0.3840487019
 C         -1.3100480947       -0.7395803592       -0.6241995549
 C         -0.0016204482       -0.8724541023       -1.0608602187
 C          0.3023087476       -0.5297017219       -2.3762826659
 C         -0.6742763710       -0.0419721983       -3.2215808130
 C         -1.9739714830        0.1157075830       -2.7730596884
 C         -2.2929726109       -0.2396265944       -1.4682410041
 N         -3.6228559788       -0.1403054752       -1.0158504539
 S         -3.9665556462        0.4184325555        0.5397219745
 O         -3.4941158210        1.7757023001        0.7064241969
 O         -3.5122424274       -0.5470485722        1.5067101165
 C         -5.7491029925        0.3953120801        0.4690980418
 C         -6.3944237587       -0.8191736420        0.6055869477
 C         -7.7773607733       -0.8558182928        0.5277556314
 C         -8.4886661192        0.3159521884        0.3152951596
 C         -7.8276433342        1.5275509419        0.1822191684
 C         -6.4440628285        1.5707241539        0.2579256895
 H         -5.8883261044        2.4904933682        0.1690103764
 H         -8.3832222248        2.4372307560        0.0204209434
 H         -9.5651302936        0.2849192206        0.2558424427
 H         -8.2949392837       -1.7956016947        0.6332304518
 H         -5.8004310936       -1.7013678993        0.7778877363
 H         -4.2077574114        0.3516510127       -1.6795278494
 H         -2.7353215570        0.5082790755       -3.4302962866
 H         -0.4217989074        0.2269819510       -4.2364369391
 H          1.3208928890       -0.6427612665       -2.7227550384
 C          1.1013345025       -1.3891880086       -0.1710944152
 H          1.4548548968       -2.3469205081       -0.5825646790
 C          0.6698336985       -1.6079107356        1.2636115179
 C          0.0006553047       -2.8872376016        1.6647590163
 C          1.4060819599       -2.6073860478        2.1025484181
 H          1.5889224258       -2.3738957617        3.1407877410
 H          2.2080087308       -3.1546861735        1.6287158441
 H         -0.7896719912       -2.8424424406        2.3990852460
 H         -0.1519143547       -3.6310918311        0.8974326996
 H          0.3465303608       -0.6910782258        1.7464809902
 O          3.7278017606       -2.1903861924       -0.9446300681
