  62
        -98.93435288
 C         -2.4075161293       -0.9375592203        0.0834502837
 C         -2.7072087518        0.4424856456        0.0218336348
 C         -4.1066563278        0.8220680131        0.2923444318
 C         -5.0095059847       -0.1350033415        0.5776594891
 C         -6.4777309251       -0.0451475424        0.9392011686
 C         -7.2646479992        1.2410578583        0.7017760335
 C         -7.4647791941        1.6057227404       -0.7686364077
 H         -8.1423382307        0.8758100346       -1.2187039548
 H         -7.9502372270        2.5829660941       -0.8151047105
 C         -6.1963208918        1.6404261468       -1.6174575544
 H         -5.7572744033        0.6416638099       -1.6635319771
 H         -6.4837568695        1.9118389782       -2.6369385417
 C         -5.1281092217        2.6307556337       -1.1574842511
 H         -5.5642333640        3.6277451949       -1.0701092321
 H         -4.3592801181        2.6688655955       -1.9339687246
 C         -4.4276202716        2.2836259456        0.1679631439
 H         -5.0066473929        2.6240519947        1.0230620115
 H         -3.4681965385        2.8088303612        0.1909949515
 H         -6.8089278522        2.0666524126        1.2402130486
 H         -8.2540597816        1.0846660573        1.1401200760
 H         -6.9652699016       -0.8666395995        0.4048333721
 H         -6.5358202022       -0.2943148000        2.0045837995
 O         -4.6664039756       -1.4564465731        0.6335703222
 C         -3.3772863071       -1.8903769546        0.3863669047
 O         -3.2235294508       -3.1259804055        0.4717602791
 O         -1.8474235158        1.3247662036       -0.2375401143
 C         -0.9967736330       -1.4217913684       -0.1899885649
 C         -0.0138214681       -0.7769891560        0.7574341448
 C         -0.3288852518       -0.6921422401        2.1115152440
 C          0.5577911092       -0.1315359799        3.0098166675
 C          1.7887892241        0.3355209231        2.5834086200
 C          2.1159886981        0.2500649570        1.2361548622
 C          1.2154770139       -0.2990374082        0.3330922725
 H          1.4984884458       -0.3505663207       -0.7048995672
 N          3.3512082984        0.7235685471        0.7648561650
 S          4.1081797809       -0.1348406877       -0.4775334852
 O          3.6040339661        0.3308905128       -1.7446986183
 O          4.0055028882       -1.5552835092       -0.2305158260
 C          5.7950665307        0.4059143323       -0.2663158283
 C          6.6669911109       -0.3760568719        0.4677951407
 C          7.9689990768        0.0622696359        0.6512043335
 C          8.3741817780        1.2699014223        0.1028670196
 C          7.4879319986        2.0436707356       -0.6318731977
 C          6.1849020193        1.6108578490       -0.8200304675
 H          5.4643284010        2.1732246922       -1.3907514032
 H          7.8075853910        2.9804357706       -1.0590958288
 H          9.3880662590        1.6086405380        0.2461974858
 H          8.6611045865       -0.5387251549        1.2187463429
 H          6.3102019717       -1.3119907398        0.8668480845
 H          3.9952061048        0.9524933541        1.5096109195
 H          2.4848993122        0.7676105433        3.2862253616
 H          0.2934967002       -0.0672254794        4.0547921132
 H         -1.2847966188       -1.0704685825        2.4489015374
 H         -0.9999546629       -2.5033166415        0.0159556322
 C         -0.6481731737       -1.2090057359       -1.6487636751
 C          0.3246602976       -2.1180581948       -2.3355904974
 C         -1.1347576840       -2.1938981258       -2.6671736127
 H         -1.4665466366       -1.8242189373       -3.6257422962
 H         -1.6984533278       -3.0417254140       -2.3051432130
 H          1.0018984648       -1.6924540449       -3.0615738031
 H          0.7594919093       -2.9170816792       -1.7533311908
 H         -0.6468213125       -0.1605000915       -1.9262559406
