  62
        -98.94624569
 C         -1.2235283400       -1.7491072389       -0.1753100217
 C         -1.3899644999       -0.6479597381       -1.0522740007
 C         -2.7155441997       -0.0064130677       -1.0321762299
 C         -3.6742050097       -0.4776009182       -0.2165587002
 C         -5.0382429295        0.1256059919       -0.0501168595
 C         -5.0522750191        1.1641546609        1.0800802014
 C         -3.9206290189        2.1894378507        0.9971508722
 H         -4.0551797486        2.8901875200        1.8244236529
 H         -2.9621430290        1.6896475403        1.1586929216
 C         -3.8610686489        2.9669776019       -0.3248006871
 H         -4.8158410590        2.8862377626       -0.8470890670
 H         -3.6997442186        4.0236479517       -0.1007930162
 C         -2.7300399491        2.5351863425       -1.2601703276
 H         -1.7854544290        2.5270408517       -0.7086222078
 H         -2.6395273190        3.2862352732       -2.0505886470
 C         -2.9184050495        1.1730105831       -1.9408612688
 H         -3.9028471696        1.1315473938       -2.4125427087
 H         -2.1582414597        1.0842831836       -2.7226145690
 H         -6.0134166490        1.6815013212        1.0612319720
 H         -4.9672755091        0.6391751900        2.0344236009
 H         -5.3423731396        0.5889667329       -0.9866603791
 H         -5.7399285897       -0.6736441481        0.1949332299
 O         -3.4877747499       -1.5500423990        0.5949328488
 C         -2.2635961500       -2.1942560094        0.6455798980
 O         -2.2259550602       -3.1525049301        1.4450312872
 H          0.5367718605        0.1363193001        0.4339092698
 C          1.0847407405       -0.4902464906        1.1188292591
 C          0.9522862401       -1.8687123205        1.0530810579
 C          1.6538311000       -2.6516445715        1.9629594171
 C          2.4645182603       -2.0642208826        2.9171624875
 C          2.6010777106       -0.6889656927        2.9749484788
 C          1.9019670907        0.1032293383        2.0707440796
 N          2.0088578911        1.4975898582        2.1099140308
 S          1.7680792411        2.4165470095        0.7373863617
 O          2.4687887615        3.6537769591        1.0208267027
 O          0.3586939111        2.5533968101        0.4719647020
 C          2.5963200107        1.5574241305       -0.5884307592
 C          1.9906563106        1.4766326618       -1.8243591492
 C          2.6472863203        0.8131801426       -2.8491422499
 C          3.8912865602        0.2475394421       -2.6215389206
 C          4.4924114803        0.3483383008       -1.3759035805
 C          3.8426174306        1.0117310100       -0.3487575099
 H          4.2888070208        1.1051657490        0.6278762302
 H          5.4609347003       -0.0918608396       -1.2012250511
 H          4.3945211799       -0.2760335373       -3.4193157711
 H          2.1730016301        0.7312695536       -3.8138743699
 H          1.0088625206        1.8997181922       -1.9592125687
 H          2.7241417112        1.8703726375        2.7153190411
 H          3.2321559509       -0.2280908235        3.7191917691
 H          2.9983441702       -2.6822102934        3.6227223769
 H          1.5468271998       -3.7252588615        1.9294650662
 C          0.0834500098       -2.5055557594       -0.0069304326
 H         -0.1936404404       -3.5082834796        0.3479249066
 C          0.8861183896       -2.6534170184       -1.2860121628
 C          1.7854010893       -3.8390552285       -1.4568688140
 C          0.5256770692       -3.7310071674       -2.2615707937
 H          0.5965788891       -3.5127263865       -3.3161285635
 H         -0.3008699309       -4.3784022275       -2.0057777742
 H          2.7294868093       -3.6973972083       -1.9592017040
 H          1.8137635492       -4.5699230292       -0.6632316946
 H          1.2182219398       -1.7065540481       -1.6913752820
 O         -0.5006971999       -0.2038147976       -1.8230407804
