  62
        -98.93767433
 C          0.9006123874        1.7027746260        0.1687471043
 C          1.3201995221        0.7315002663       -0.7684956179
 C          2.5312842416       -0.0442303637       -0.4247639796
 C          3.1200178889        0.1523745599        0.7674472565
 C          4.3778274167       -0.4749077397        1.3106714763
 C          5.5898114931       -0.4244821135        0.3653501780
 C          6.0107290746       -1.8003000960       -0.1500536931
 H          7.0573599587       -1.7538451743       -0.4590572704
 H          5.9449835021       -2.5180630781        0.6701738352
 C          5.1988073017       -2.3102154637       -1.3387720087
 H          5.4487584992       -1.7209055821       -2.2237988182
 H          5.5131223630       -3.3380003187       -1.5355111993
 C          3.6784813448       -2.2907337520       -1.1552701342
 H          3.4152000808       -2.5779997072       -0.1397706955
 H          3.2612137032       -3.0475364561       -1.8232827293
 C          3.0183419168       -0.9545758037       -1.5206512578
 H          3.6907368857       -0.3768732535       -2.1641540447
 H          2.1272928780       -1.1471832548       -2.1266830080
 H          5.3747369225        0.2382232069       -0.4726829239
 H          6.4293435122        0.0074748509        0.9121988113
 H          4.5984144322        0.0724923845        2.2294736006
 H          4.1773990626       -1.5079702159        1.6003042470
 O          2.6052294923        1.0100496112        1.6937830567
 C          1.5258999973        1.8208362213        1.4141226396
 O          1.2164404820        2.5988208384        2.3380463235
 H         -1.3573737460        0.6387301807       -1.4176910907
 C         -2.0149038932        1.0335575549       -0.6569851509
 C         -1.5841129565        2.0952461568        0.1257622831
 C         -2.4316511063        2.5760941132        1.1166783534
 C         -3.6802340034        2.0113431855        1.3150590799
 C         -4.1045675264        0.9495702455        0.5355927175
 C         -3.2583884028        0.4571389863       -0.4486689028
 N         -3.6574137700       -0.6743191959       -1.2024852617
 S         -3.6087721740       -2.1023021111       -0.3257897837
 O         -3.7929589837       -3.1683041060       -1.2833411473
 O         -4.5806754274       -2.0209664176        0.7342421173
 C         -1.9615938146       -2.1665715922        0.3579632581
 C         -0.9955299006       -2.9055284892       -0.2938076445
 C          0.2967185978       -2.9076521722        0.2037636178
 C          0.6035224807       -2.1539318147        1.3254450771
 C         -0.3732869894       -1.4038891541        1.9604951589
 C         -1.6718542670       -1.4128508939        1.4782403925
 H         -2.4575659920       -0.8528282512        1.9586633126
 H         -0.1251490079       -0.8041170348        2.8226349216
 H          1.6102315529       -2.1453188659        1.7125001071
 H          1.0604015503       -3.4879557995       -0.2876924030
 H         -1.2754876616       -3.4723992973       -1.1673340730
 H         -3.0984858858       -0.7941294298       -2.0372485203
 H         -5.0603447274        0.4774375580        0.6939826768
 H         -4.3273838316        2.3976876448        2.0878043697
 H         -2.0991612629        3.3892566812        1.7454662396
 C         -0.2192849393        2.7008722528       -0.0887459782
 H         -0.0845514005        3.4886057123        0.6644566066
 C         -0.1269236863        3.3352033176       -1.4643048976
 C         -0.7961096851        4.6536617796       -1.7030310306
 C          0.6994782667        4.5703621238       -1.6493565043
 H          1.2579723218        4.6841381215       -2.5663492509
 H          1.2018550197        4.9713349416       -0.7808223251
 H         -1.2681035521        4.8262179025       -2.6580415103
 H         -1.3078216912        5.1133672111       -0.8710632833
 H         -0.1303868049        2.6149618863       -2.2715570405
 O          0.7408209832        0.5098843201       -1.8665813624
