  62
        -98.94228222
 C          1.2005824280       -0.9202183057       -0.4336643177
 C          2.0740878321       -0.7099254230        0.6571441520
 C          3.0680308856        0.3684688259        0.5041585260
 C          3.0686906252        1.1161509542       -0.6150665160
 C          3.9160372144        2.3051977247       -1.0184539050
 C          5.2061144995        2.6360275013       -0.2723355683
 C          6.3226778713        1.6052068801       -0.4346376635
 H          7.1529734127        1.8987449938        0.2113316896
 H          6.6771820491        1.6370487379       -1.4679253214
 C          5.9370075211        0.1612837067       -0.1233918834
 H          6.8230918059       -0.4610301797       -0.2748065107
 H          5.1805387954       -0.1772723916       -0.8342187736
 C          5.4304115036       -0.0886573590        1.2958558433
 H          6.1584084551        0.2864202474        2.0176188525
 H          5.3520224064       -1.1706421001        1.4306329873
 C          4.0548931411        0.5177854459        1.6259257777
 H          4.1408751581        1.5599253301        1.9253026318
 H          3.6364041641       -0.0317265952        2.4744332235
 H          4.9979721771        2.8105160505        0.7792295467
 H          5.5676131996        3.5825301536       -0.6837759029
 H          4.1434903764        2.1619107870       -2.0797845201
 H          3.2491843182        3.1734165018       -0.9611383366
 O          2.1688758370        0.9074931295       -1.6210590733
 C          1.2195524611       -0.0955699519       -1.5560246030
 O          0.4604079102       -0.1518763807       -2.5460125825
 H         -0.8152629734        0.3883567560        0.2885542556
 C         -1.2525557464       -0.3844832351        0.9016475174
 C         -0.8460621503       -1.7010958889        0.7364394518
 C         -1.3993261443       -2.6724005900        1.5612835192
 C         -2.3245995982       -2.3210936726        2.5294374046
 C         -2.7386941871       -1.0096320707        2.6783203229
 C         -2.1951328762       -0.0318709009        1.8530334702
 N         -2.5864309280        1.3122481885        1.9528232591
 S         -2.7115817048        2.2257171690        0.5564301976
 O         -1.4044278582        2.6114386885        0.0856203814
 O         -3.5919447345        3.3147784173        0.9245872049
 C         -3.5359409690        1.1566150252       -0.6104608685
 C         -4.8633952254        0.8624726792       -0.3603751181
 C         -5.5335799509       -0.0028149914       -1.2082123457
 C         -4.8663024740       -0.5636257868       -2.2871404141
 C         -3.5373916636       -0.2543052602       -2.5278832556
 C         -2.8609952597        0.6141214266       -1.6842735157
 H         -1.8240918119        0.8598324417       -1.8556275046
 H         -3.0089090403       -0.6846417378       -3.3638399906
 H         -5.3839316720       -1.2428865692       -2.9459088927
 H         -6.5691537395       -0.2398184199       -1.0253025438
 H         -5.3497976981        1.3281313341        0.4813087261
 H         -3.3484363966        1.4901238658        2.5903631866
 H         -3.4657749149       -0.7407097522        3.4288390066
 H         -2.7382597404       -3.0831330443        3.1722274544
 H         -1.1007357935       -3.7019614683        1.4517119695
 C          0.1408827726       -2.0035166868       -0.3664084529
 H         -0.4064485380       -1.9480594093       -1.3199996999
 C          0.7785888223       -3.3721969401       -0.2497051376
 C          0.1075715193       -4.5718978668       -0.8460988073
 C          1.3435749125       -4.0118329408       -1.4812544662
 H          2.2667205099       -4.5654385276       -1.3981801726
 H          1.2429863722       -3.4703685314       -2.4110463849
 H         -0.8333594254       -4.4190953919       -1.3526309774
 H          0.1838664428       -5.5159784846       -0.3280807345
 H          1.3284176008       -3.4964485087        0.6757325685
 O          2.0281108796       -1.3845678402        1.7192366975
