  62
        -98.94297614
 C         -2.6176275091       -1.2090176114        0.2278611287
 C         -2.7714523495       -0.3146209308       -0.8591507607
 C         -3.8499418498        0.6746403488       -0.7268270300
 C         -4.6273837897        0.6863981179        0.3702216900
 C         -5.7778637699        1.6186435374        0.6360167507
 C         -5.3609570003        2.9759209772        1.2188271315
 C         -4.6739620507        3.9232366380        0.2344449919
 H         -5.2863432508        4.0201103983       -0.6626122279
 H         -4.6348867209        4.9053887977        0.7096403225
 C         -3.2485868806        3.5072718387       -0.1552457984
 H         -2.5890249308        4.3765819588       -0.1058934480
 H         -2.8708668503        2.7783793983        0.5657361611
 C         -3.1216481705        2.9226500295       -1.5620631688
 H         -3.3706695909        3.6874566399       -2.3011912383
 H         -2.0800172505        2.6304163299       -1.7188271491
 C         -4.0027235502        1.6927308994       -1.8169098894
 H         -3.6824798601        1.2292806600       -2.7533795297
 H         -5.0461460503        1.9914474391       -1.9142850891
 H         -6.2663344504        3.4635729067        1.5873437018
 H         -4.7051301101        2.8017359269        2.0748912513
 H         -6.4222862797        1.1163558468        1.3606821605
 H         -6.3437903301        1.7739612978       -0.2829599491
 O         -4.4579361093       -0.1964126026        1.3889758895
 C         -3.4530729390       -1.1456090623        1.3494436488
 O         -3.4082877187       -1.8785438929        2.3575086084
 O         -2.0626292496       -0.3184051300       -1.9024307208
 C         -1.5661186087       -2.3076230611        0.2701210880
 C         -0.2003609989       -1.7697007009        0.6269188681
 C          0.4445476414       -2.1838877314        1.7864707878
 C          1.7066651213       -1.7098307011        2.0986832680
 C          2.3497699009       -0.8136026005        1.2639405784
 C          1.7135170806       -0.3921506700        0.1037977988
 C          0.4499867808       -0.8727558302       -0.2087303614
 H         -0.0429120294       -0.5382093598       -1.1098707612
 N          2.3523315503        0.5329702407       -0.7430860008
 S          3.8908867403        0.1439049915       -1.2954711012
 O          4.0552921800        0.8876601223       -2.5252443907
 O          4.0760296708       -1.2866165584       -1.3798443920
 C          4.9769255403        0.8251372511       -0.0594932109
 C          5.8786167606        0.0060951610        0.5914369785
 C          6.7217098605        0.5600101407        1.5423042688
 C          6.6494354801        1.9159079005        1.8226174596
 C          5.7403236398        2.7254463106        1.1576734202
 C          4.8952463099        2.1781452009        0.2055864699
 H          4.1779768096        2.7719746610       -0.3361490897
 H          5.6874660895        3.7794993605        1.3780797408
 H          7.3056315001        2.3445923403        2.5635273298
 H          7.4293390708       -0.0674866294        2.0599248683
 H          5.8953240709       -1.0432937188        0.3437823979
 H          1.7699526401        0.8277032310       -1.5143887605
 H          3.3319199408       -0.4394258903        1.5027973986
 H          2.1947524415       -2.0405040715        3.0027447777
 H         -0.0557305783       -2.8756315719        2.4487236975
 H         -1.8795008285       -2.9809400517        1.0790853976
 C         -1.5030892986       -3.1088416603       -1.0170374025
 C         -0.9327034582       -4.4932265502       -0.9839048334
 C         -2.4038591983       -4.2927182605       -1.1893176631
 H         -2.8218969683       -4.4839562200       -2.1662410332
 H         -3.0703310181       -4.5356083912       -0.3742664232
 H         -0.3349647382       -4.8233314295       -1.8197807136
 H         -0.6018682680       -4.8753245206       -0.0299946336
 H         -1.3058864589       -2.5044463197       -1.8926349822
