  62
        -98.94286983
 C          2.4983154082        0.1918936442       -0.2377982634
 C          2.3371136120        1.3959185463       -0.9674090476
 C          1.7694701690        2.5297038663       -0.2328010451
 C          1.4306218722        2.3805272441        1.0602059184
 C          0.8079822950        3.4316592774        1.9380405816
 C         -0.7165532064        3.5217687811        1.7800008150
 C         -1.1961760598        4.1971185002        0.4940073399
 H         -2.2578520285        4.4154067875        0.6257058815
 H         -0.6787360448        5.1493089376        0.3682606453
 C         -1.0247916556        3.3400990826       -0.7678349835
 H         -0.8893755616        2.2959716165       -0.4756056470
 H         -1.9386755644        3.3916988702       -1.3650570547
 C          0.1299776366        3.7649073305       -1.6758715222
 H          0.1879031151        3.0587378391       -2.5081615491
 H         -0.0731705590        4.7565437689       -2.0875309033
 C          1.5015990508        3.7959849054       -0.9900057871
 H          1.5705874110        4.6563617782       -0.3246291492
 H          2.2682581036        3.8877555398       -1.7637633689
 H         -1.1285281520        2.5100855666        1.8330194473
 H         -1.1021064354        4.0875215360        2.6318424261
 H          1.2591592248        4.4033821321        1.7338205027
 H          1.0329715878        3.1509050772        2.9693243581
 O          1.6325248564        1.2217281174        1.7383223974
 C          2.1103663558        0.0873429889        1.1001292016
 O          2.1611631036       -0.9181692669        1.8361848916
 O          2.6397475124        1.5107804905       -2.1866187604
 C          2.9348846580       -1.0435162722       -1.0087776403
 C          1.9587465294       -2.1567397023       -0.7171295917
 C          2.3218201326       -3.4433223148       -0.3458442329
 C          1.3504816704       -4.3765462006       -0.0231086176
 C          0.0110831842       -4.0358817462       -0.0244452963
 C         -0.3623021972       -2.7509749157       -0.4027233724
 C          0.6059388237       -1.8455258403       -0.7954931721
 H          0.3081848216       -0.8530174742       -1.0992108059
 N         -1.7159308072       -2.3418218964       -0.3942239364
 S         -2.1160600383       -1.0365010359        0.6108474965
 O         -1.2237149926        0.0676516763        0.3852980434
 O         -2.2379349663       -1.5100516073        1.9758307804
 C         -3.7348318609       -0.6439831471       -0.0238894471
 C         -3.8320596126        0.2251873549       -1.0927129960
 C         -5.0840580739        0.5097993135       -1.6141669170
 C         -6.2118758915       -0.0799532493       -1.0630888577
 C         -6.0989286438       -0.9500088596        0.0106634703
 C         -4.8493133778       -1.2373861666        0.5369066518
 H         -4.7160844948       -1.8957092003        1.3801356866
 H         -6.9777782533       -1.4040342223        0.4392731010
 H         -7.1848980298        0.1430555171       -1.4713973977
 H         -5.1744185032        1.1887174813       -2.4467981827
 H         -2.9288033308        0.6652828458       -1.4833921441
 H         -2.3287219170       -3.1079390367       -0.1406838965
 H         -0.7407022955       -4.7510010162        0.2760040058
 H          1.6446846433       -5.3743330623        0.2661644796
 H          3.3635605721       -3.7114517549       -0.2795503826
 H          2.8187928679       -0.7541774106       -2.0675583836
 C          4.3919738944       -1.4389711254       -0.8279818097
 C          5.4081245439       -0.4486625424       -0.3452437036
 C          5.0133341455       -1.6012829412        0.5258465473
 H          5.7259122528       -2.4004332640        0.6699768859
 H          4.3887645306       -1.4091836789        1.3838986161
 H          6.3873621113       -0.4552666076       -0.8000676460
 H          5.0561495978        0.5368346455       -0.0758709184
 H          4.7260011636       -2.1252318489       -1.6002901352
