  62
        -98.94402609
 C         -0.5967666222       -2.1208307091       -0.6371811738
 C         -0.9817428229       -0.8785388019       -1.2015908865
 C         -2.3814432588       -0.4806842091       -0.9778465559
 C         -3.1887310930       -1.2626462798       -0.2412568655
 C         -4.6188589161       -0.9541379001        0.0944908180
 C         -4.7373558525       -0.2011407000        1.4260441283
 C         -3.8107107787        1.0095475632        1.5423937814
 H         -4.0280620156        1.4931734112        2.4979498236
 H         -2.7713474551        0.6734697871        1.5902505567
 C         -3.9545905414        2.0335131946        0.4080694326
 H         -4.9092854844        1.8950603870       -0.1015340575
 H         -3.9604004937        3.0347825155        0.8443827390
 C         -2.8152179917        1.9977149383       -0.6121671381
 H         -1.8609254902        1.9843594088       -0.0795966656
 H         -2.8550391040        2.9155199579       -1.2048709688
 C         -2.8295912609        0.8163104351       -1.5897048058
 H         -3.8217612646        0.7134125188       -2.0343818352
 H         -2.1126191001        1.0359298905       -2.3861656865
 H         -5.7736809449        0.1210828407        1.5471315076
 H         -4.4989396861       -0.8919766194        2.2381794790
 H         -5.0540863683       -0.3624977115       -0.7086323903
 H         -5.1620274246       -1.8977306613        0.1738914698
 O         -2.7759994633       -2.4314038518        0.3139203497
 C         -1.4783390968       -2.8781957087        0.1376149616
 O         -1.2326978730       -3.9646083282        0.7029837636
 H          1.1357246567       -0.1489410124       -0.0231714809
 C          1.7389664508       -0.8165132501        0.5684109364
 C          1.6983082305       -2.1795988723        0.3115269355
 C          2.4826270683       -3.0289099928        1.0824844440
 C          3.2794440604       -2.5203562415        2.0938686378
 C          3.2977783874       -1.1636354932        2.3636715636
 C          2.5165401667       -0.3063835512        1.5960309444
 N          2.5213520401        1.0773873612        1.8198555895
 S          1.1497792667        2.0025535431        1.5615059409
 O          1.2936497456        3.1254216944        2.4672216430
 O         -0.0585749453        1.2270060896        1.7253490347
 C          1.2850011162        2.6176591273       -0.1052465650
 C          2.2611811586        2.1705694813       -0.9698306761
 C          2.2984940337        2.6825742425       -2.2574240188
 C          1.3698592345        3.6295929900       -2.6559999072
 C          0.4050015179        4.0820117693       -1.7697731899
 C          0.3627487722        3.5741968349       -0.4822732292
 H         -0.3674397589        3.9031744997        0.2403493394
 H         -0.3153057341        4.8233502978       -2.0770201410
 H          1.3978526099        4.0180940206       -3.6619137309
 H          3.0509570771        2.3324463645       -2.9457157802
 H          2.9737947584        1.4322625779       -0.6419628141
 H          3.0342369390        1.3875316346        2.6313368526
 H          3.9066705265       -0.7691913059        3.1628560668
 H          3.8833754892       -3.1890383151        2.6883804778
 H          2.4502074706       -4.0929049974        0.8988269147
 C          0.8006399001       -2.7056979946       -0.7782616034
 H          0.6788482031       -3.7882687000       -0.6130311590
 C          1.3837154423       -2.5215331679       -2.1732584131
 C          2.5289459036       -1.6083887347       -2.4783167550
 C          2.7323782639       -3.0916151405       -2.5009804292
 H          2.8679289707       -3.5851185265       -3.4513736653
 H          3.2948100532       -3.5302905084       -1.6904552465
 H          2.9620647046       -1.0485751882       -1.6650352215
 H          2.5001656348       -1.0690749492       -3.4122438875
 H          0.6209880065       -2.6063714965       -2.9403841545
 O         -0.2210376023       -0.1319608698       -1.8689920071
