  62
        -98.93218742
 C         -2.2762627445       -1.1361964816       -0.0880488803
 C         -2.1886509509        0.2520159411       -0.3452709087
 C         -3.2705733146        1.0936259144        0.2064287434
 C         -4.2710838345        0.5250641544        0.9031631370
 C         -5.4688085255        1.1276436220        1.6080798193
 C         -5.8967967532        2.5668502585        1.3330213871
 C         -6.4282074603        2.8182781842       -0.0775812724
 H         -7.3877280205        2.3061531610       -0.1841643510
 H         -6.6086157713        3.8897141584       -0.1882911951
 C         -5.5266751546        2.3468186803       -1.2158975038
 H         -5.4230119708        1.2605333007       -1.1771732246
 H         -6.0245048802        2.5886292415       -2.1588895349
 C         -4.1349871813        2.9756759964       -1.2521096111
 H         -3.6632455269        2.6786321581       -2.1928275092
 H         -4.2221470370        4.0639769951       -1.2517083452
 C         -3.1892159601        2.5590275739       -0.1120719225
 H         -2.1619140182        2.7455950102       -0.4396285980
 H         -3.3585527544        3.1550822691        0.7815760053
 H         -5.0854579597        3.2515652423        1.5615218109
 H         -6.7057819891        2.7891685888        2.0341969460
 H         -6.3069379596        0.4578590242        1.3913063094
 H         -5.2633006555        1.0267332505        2.6794816990
 O         -4.3117660091       -0.8213495352        1.1263477874
 C         -3.3357120201       -1.6726051275        0.6473673618
 O         -3.5244896686       -2.8728211187        0.9305091113
 H          0.7967478435       -0.2899184307       -0.3960947341
 C          0.9055745136       -1.1033560365        0.3044574941
 C         -0.0407386740       -2.1174507073        0.3595155235
 C          0.1107923724       -3.1241147562        1.3083160093
 C          1.1905048908       -3.1246635199        2.1719929899
 C          2.1478566291       -2.1300036949        2.0946612129
 C          1.9976595950       -1.1098084262        1.1611976727
 N          2.9361517071       -0.0704626771        1.0903834755
 S          3.3425814711        0.5693804320       -0.4190949547
 O          2.5196633293        1.7218668916       -0.6825365758
 O          3.3370926487       -0.4769841006       -1.4150076559
 C          5.0184420572        1.0961992270       -0.1001602020
 C          6.0560348216        0.2177599925       -0.3503544120
 C          7.3542080753        0.6160221580       -0.0728324791
 C          7.5919798951        1.8783454666        0.4501269395
 C          6.5409339792        2.7495678216        0.6948593868
 C          5.2404602267        2.3576254080        0.4188118921
 H          4.3925430488        3.0022582350        0.5830855383
 H          6.7294143074        3.7314629905        1.0980855013
 H          8.6029906465        2.1863582189        0.6651077644
 H          8.1735065597       -0.0575737520       -0.2658070132
 H          5.8240828740       -0.7492410426       -0.7670098810
 H          3.7521911116       -0.2322362816        1.6641962713
 H          2.9987378639       -2.1335035882        2.7591057988
 H          1.2937914868       -3.9126022188        2.9026343962
 H         -0.6383877296       -3.9005847986        1.3697472733
 C         -1.2356451767       -2.1384583229       -0.5646749581
 H         -1.7137497467       -3.1228684520       -0.4634620748
 C         -0.8359733812       -1.9550912642       -2.0141739668
 C         -0.2478833620       -3.1184082567       -2.7522844632
 C         -1.6289807536       -2.6402354477       -3.0842791625
 H         -1.7880423690       -2.1222741305       -4.0181838725
 H         -2.4666741304       -3.2477776663       -2.7729770478
 H          0.5491454215       -2.9285911125       -3.4548164109
 H         -0.1505633121       -4.0513611817       -2.2174855674
 H         -0.4474245061       -0.9707433540       -2.2400130266
 O         -1.2614504960        0.7935096008       -1.0034741753
