  62
        -98.94091229
 C          2.3246816743        0.7854919389       -0.1304450768
 C          3.5945439833        1.1766708075        0.3575809070
 C          4.7461404821        0.4850754375       -0.2314167663
 C          4.5501143085       -0.4385766332       -1.1901575057
 C          5.6250205603       -1.2110083705       -1.9061443533
 C          6.1097564436       -2.4556885782       -1.1498556767
 C          6.9746039494       -2.1744424363        0.0795762550
 H          7.4207510169       -3.1241746432        0.3811459683
 H          7.7896349577       -1.5049128679       -0.1967269486
 C          6.2066747116       -1.5890158914        1.2728840568
 H          5.1359808826       -1.7559991717        1.1334206949
 H          6.4960250213       -2.1143949944        2.1858126718
 C          6.4480025663       -0.0985190820        1.5119479313
 H          5.8288023394        0.2185780197        2.3549868038
 H          7.4935409063        0.0647603031        1.7821265514
 C          6.1081659851        0.7958406576        0.3124121894
 H          6.8630813399        0.6853763744       -0.4655384628
 H          6.1011265822        1.8349913062        0.6501163237
 H          5.2387990054       -3.0462630785       -0.8562842400
 H          6.6960841074       -3.0542410353       -1.8508271958
 H          6.4719017958       -0.5556446019       -2.1113967354
 H          5.1944576206       -1.5319091946       -2.8570845149
 O          3.3125911599       -0.7722690899       -1.6465004417
 C          2.1706036120       -0.1863837359       -1.1184660717
 O          1.1048838229       -0.6079517066       -1.6085637898
 O          3.7561426434        2.0585430092        1.2431626507
 C          1.0850966031        1.4529440617        0.4344811166
 C          0.1403489982        0.4246957721        1.0054352353
 C          0.6429587962       -0.5551212589        1.8582537959
 C         -0.1885177571       -1.5182497076        2.3946054600
 C         -1.5395029168       -1.5240988383        2.0951182171
 C         -2.0563083685       -0.5390063204        1.2623263888
 C         -1.2177311651        0.4305182346        0.7288747109
 H         -1.6421629001        1.1777897309        0.0807425900
 N         -3.4365600782       -0.4935536808        0.9972701589
 S         -4.0104794150        0.0341775102       -0.4990350203
 O         -3.4391670723       -0.7498423098       -1.5712626561
 O         -3.8471855577        1.4629368831       -0.5887521935
 C         -5.7404116825       -0.3558949784       -0.3040616540
 C         -6.2522659338       -1.5017846494       -0.8823489167
 C         -7.5923179326       -1.8051356361       -0.6980553475
 C         -8.3923688773       -0.9639133089        0.0602996472
 C         -7.8646470108        0.1836659831        0.6336442219
 C         -6.5264557961        0.4936952338        0.4515076124
 H         -6.0747615296        1.3781428254        0.8692023777
 H         -8.4906441003        0.8367362496        1.2200036488
 H         -9.4344710083       -1.2026407668        0.2028087654
 H         -8.0058804531       -2.6943878531       -1.1458662325
 H         -5.5939208103       -2.1216444332       -1.4698935617
 H         -3.9069622197       -1.3462447746        1.2704327105
 H         -2.1880942309       -2.2827657483        2.5062405915
 H          0.2183106897       -2.2770000749        3.0463695074
 H          1.7005120318       -0.5556311479        2.0861199088
 H          1.4445222173        2.0857817000        1.2605397758
 C          0.4456451716        2.3415193835       -0.6117428451
 C         -0.3218795106        3.5612861973       -0.2010598726
 C          1.0160280071        3.7044689895       -0.8602864456
 H          1.0574682026        4.0683868493       -1.8759547786
 H          1.8562367116        4.0062536538       -0.2520353530
 H         -1.2083767446        3.8212454809       -0.7602754870
 H         -0.3911589062        3.7733306885        0.8552300514
 H          0.0914416736        1.7825939226       -1.4723786108
