  62
        -98.94559523
 C         -2.3380356367       -0.1729716286        0.1232191737
 C         -1.5555973404        0.4206742266       -0.8915376034
 C         -1.3751908949        1.8815295653       -0.8222353053
 C         -1.8779936851        2.5554801913        0.2287146818
 C         -1.8750024489        4.0321009627        0.5654782656
 C         -1.0076150482        5.0115387744       -0.2193153562
 C          0.4938947093        4.8590026876        0.0182129899
 H          1.0169867174        5.5484345972       -0.6486390121
 H          0.7161035080        5.1563041788        1.0462909731
 C          1.0533424382        3.4532376535       -0.1863755002
 H          0.6319609436        2.7656278132        0.5505533272
 H          2.1302336930        3.4896080700        0.0058242576
 C          0.8509925389        2.8711489654       -1.5831588266
 H          1.2306173480        3.5709231751       -2.3308306322
 H          1.4505837532        1.9594400182       -1.6407512423
 C         -0.5979393130        2.5040598766       -1.9481222273
 H         -1.1338888522        3.3664802616       -2.3397399109
 H         -0.5624072424        1.7521408711       -2.7420697358
 H         -1.2929634939        6.0140557512        0.1111850263
 H         -1.2345228650        4.9511593389       -1.2795197425
 H         -2.9200383969        4.3534578832        0.4894646041
 H         -1.6112564919        4.0925270515        1.6265846058
 O         -2.5782795929        1.9277081636        1.2196475826
 C         -2.8261769204        0.5685155886        1.1955363290
 O         -3.4843024342        0.1448029112        2.1692962042
 H         -0.5111516352       -1.0755844764        1.6709016028
 C         -0.2871343941       -1.9201742341        1.0356241483
 C         -1.2520273518       -2.3924773216        0.1553337335
 C         -0.9435833422       -3.4906028151       -0.6376239769
 C          0.3096615253       -4.0752327285       -0.5669668677
 C          1.2854449977       -3.5651024783        0.2702107735
 C          0.9821488109       -2.4726475961        1.0745402858
 N          1.9437475427       -1.8879882370        1.9253024289
 S          2.3509456759       -0.2893049996        1.6185582043
 O          3.4017696888        0.0167343732        2.5658989508
 O          1.1762514151        0.5400607077        1.6799627106
 C          3.0386883357       -0.3242348474       -0.0276121573
 C          2.1998026345       -0.4810592073       -1.1131275925
 C          2.7597208664       -0.5877033783       -2.3779420782
 C          4.1353455102       -0.5348557673       -2.5369169333
 C          4.9637775457       -0.3752991167       -1.4359000915
 C          4.4127333754       -0.2757699040       -0.1689557740
 H          5.0155447307       -0.1531582609        0.7164209664
 H          6.0338289413       -0.3321727205       -1.5600947519
 H          4.5623121908       -0.6176141042       -3.5239096301
 H          2.1046486000       -0.7092444223       -3.2258566042
 H          1.1302311099       -0.5128134732       -0.9760901848
 H          2.7911192015       -2.4321275104        2.0168573115
 H          2.2719474402       -4.0025155615        0.3019694900
 H          0.5360850493       -4.9275790794       -1.1890466155
 H         -1.6818710582       -3.8841289018       -1.3169153416
 C         -2.5787337871       -1.6725852375        0.1181332719
 H         -3.1170168837       -1.8962405100        1.0512592193
 C         -3.4476373921       -2.0671744242       -1.0578381165
 C         -4.3544175977       -3.2563285347       -0.9621599236
 C         -4.9297111248       -1.8727735563       -0.9581719089
 H         -5.4653715923       -1.5315952111       -1.8312070975
 H         -5.3151572177       -1.4786503294       -0.0287211752
 H         -4.3599743833       -3.8080609207       -0.0342197351
 H         -4.5004907337       -3.8663371445       -1.8408038397
 H         -2.9783404083       -1.8536108088       -2.0111136138
 O         -1.0347384098       -0.2390671609       -1.8301533992
