  62
        -98.94284950
 C         -1.5693152999       -1.4607102495        0.1236442380
 C         -2.7017224397       -0.9795850501        0.8268423687
 C         -3.3622951494        0.2009313709        0.2580500303
 C         -2.8583213592        0.7771920022       -0.8482566390
 C         -3.4246768689        1.9781837633       -1.5568668174
 C         -3.0022117385        3.3236360924       -0.9507104757
 C         -3.6558907483        3.6710875608        0.3871645648
 H         -3.4450222680        4.7242299105        0.5836474962
 H         -4.7379575683        3.5668310912        0.3022009347
 C         -3.1474520685        2.8376759291        1.5720084737
 H         -2.2050734687        2.3555338392        1.3003391530
 H         -2.9367583383        3.4960888979        2.4180367846
 C         -4.1257050288        1.7694552487        2.0605814824
 H         -5.0223002986        2.2489378385        2.4597005130
 H         -3.6514406589        1.2148604675        2.8745829416
 C         -4.5482421692        0.7617829303        0.9836092811
 H         -5.0606784394       -0.0686885502        1.4758495800
 H         -5.2373875390        1.2298938214        0.2807990417
 H         -3.2637823383        4.1023036234       -1.6708861846
 H         -1.9165343985        3.3310428219       -0.8302826657
 H         -4.5131172689        1.9134056236       -1.5731033874
 H         -3.0595614290        1.9327029745       -2.5850112975
 O         -1.7521014994        0.3043456827       -1.4781573097
 C         -1.0710032197       -0.8137995882       -1.0100457312
 O         -0.0682247199       -1.1089747776       -1.6815652116
 O         -3.1371308098       -1.5088057113        1.8849083780
 C         -0.8338915702       -2.6583191305        0.6989837364
 C          0.6468663699       -2.3712200110        0.7332253567
 C          1.6129784696       -3.1992903405        0.1793159756
 C          2.9503104497       -2.8420131710        0.2196814660
 C          3.3526727501       -1.6549701319        0.8021592275
 C          2.3929219104       -0.8178384823        1.3571711387
 C          1.0587995403       -1.1872770819        1.3343392882
 H          0.3139021405       -0.5305413322        1.7684583491
 N          2.7846346608        0.4109736968        1.9289501903
 S          3.6230860211        1.4654922679        0.9298127216
 O          4.9700763609        0.9805383177        0.7643234209
 O          3.4882551715        2.7625132471        1.5556719033
 C          2.7654607910        1.4385047002       -0.6316612784
 C          3.2180111007        0.6189362014       -1.6447838995
 C          2.5108724006        0.5742338531       -2.8345903095
 C          1.3719449208        1.3465309637       -2.9906997784
 C          0.9334132211        2.1690156225       -1.9655946073
 C          1.6298388412        2.2112011707       -0.7698022173
 H          1.3209070914        2.8393645297        0.0517039635
 H          0.0435364113        2.7649581129       -2.0939760665
 H          0.8157875308        1.3021196351       -3.9134981885
 H          2.8427549704       -0.0708955959       -3.6316428604
 H          4.1109587705        0.0369902409       -1.4866617403
 H          2.0191952509        0.9037440465        2.3670967309
 H          4.3874348402       -1.3533014322        0.8249017979
 H          3.6896732295       -3.4947933406       -0.2188890749
 H          1.3200527293       -4.1145007398       -0.3076560256
 H         -1.1910186302       -2.7236155517        1.7410724863
 C         -1.1808764507       -3.9856663695        0.0417272047
 C         -2.4817528507       -4.1764414082       -0.6778980955
 C         -1.1965320408       -4.1582159275       -1.4466547656
 H         -0.8348173011       -5.0891489471       -1.8583301168
 H         -0.9674134105       -3.2940691268       -2.0496192244
 H         -2.9999431210       -5.1162078682       -0.5582287067
 H         -3.1398232705       -3.3235137179       -0.7600942544
 H         -0.8319046409       -4.8313814204        0.6264230335
