  62
        -98.94579535
 C          2.1940047471        1.1670509121        0.1977917538
 C          1.8637965368        0.2439931565       -0.8244711936
 C          2.6326200306       -1.0108107265       -0.8238663365
 C          3.5765514078       -1.2073261184        0.1147661504
 C          4.4092331124       -2.4491598882        0.2481926815
 C          3.7473876260       -3.4697801353        1.1843010311
 C          2.2769695640       -3.7372677467        0.8629115360
 H          1.9207339871       -4.4934155589        1.5661335129
 H          1.7001130193       -2.8286633779        1.0527597625
 C          2.0182068352       -4.2110978885       -0.5741868089
 H          1.3201293000       -5.0504247749       -0.5446792892
 H          2.9460401532       -4.5764938490       -1.0155919500
 C          1.4014397245       -3.1512016350       -1.4886203395
 H          1.0613516208       -3.6487679945       -2.4006258444
 H          0.5211228274       -2.7241215673       -1.0022826427
 C          2.3317014713       -2.0062490630       -1.9096030383
 H          3.2561426372       -2.4184245743       -2.3191417146
 H          1.8296830479       -1.4403679029       -2.6998691102
 H          4.3087243931       -4.4041878412        1.1295684987
 H          3.8122651981       -3.0949467490        2.2086102397
 H          5.3797410575       -2.1681811163        0.6607705750
 H          4.5578677138       -2.8876187845       -0.7367092344
 O          3.8534811587       -0.3028691651        1.0890802447
 C          3.1700282515        0.9016340935        1.1572244374
 O          3.5136362656        1.6355413213        2.1067990275
 O          0.9791241351        0.4532414978       -1.6922489624
 C          1.4865426953        2.5079753809        0.2632979572
 C         -0.0103142304        2.3353184764        0.3577942871
 C         -0.9074460112        3.1705574098       -0.2965713131
 C         -2.2722391029        2.9824280959       -0.1607729314
 C         -2.7733903879        1.9566447319        0.6186455343
 C         -1.8847527111        1.1111224953        1.2710749566
 C         -0.5185506854        1.3126414844        1.1481963578
 H          0.1687160513        0.6544866499        1.6666039164
 N         -2.3829639804        0.0441667357        2.0373181879
 S         -3.6383446909       -0.8563781585        1.3901531529
 O         -4.8953742663       -0.2312590159        1.7216943037
 O         -3.4506526543       -2.1931726989        1.9113215957
 C         -3.4115547320       -0.8325483056       -0.3800061852
 C         -2.1679869587       -1.1386697309       -0.8945541477
 C         -1.9775418633       -1.0971117600       -2.2652655473
 C         -3.0355281634       -0.7633593714       -3.0966133899
 C         -4.2830057171       -0.4715558305       -2.5671674301
 C         -4.4745168783       -0.4999574119       -1.1951485933
 H         -5.4221590192       -0.2629981530       -0.7391559977
 H         -5.1034195538       -0.2133200574       -3.2172379707
 H         -2.8820579908       -0.7273542486       -4.1635595608
 H         -0.9982219953       -1.2975830695       -2.6683424928
 H         -1.3571997392       -1.3886602844       -0.2281435289
 H         -1.6682505031       -0.5536512105        2.4249913555
 H         -3.8331372575        1.7961444129        0.7352470188
 H         -2.9559538456        3.6413799901       -0.6732843020
 H         -0.5371137434        3.9707026823       -0.9157454198
 H          1.8303852254        2.9875486316        1.1921624748
 C          1.9134070592        3.3654850616       -0.9119486758
 C          2.0215207675        4.8531339657       -0.7695338974
 C          3.2613888720        4.0182918016       -0.8740242751
 H          3.8408055218        4.0616144997       -1.7840236735
 H          3.8574807783        3.8699261973        0.0151344970
 H          1.7523344185        5.4731633497       -1.6113943673
 H          1.7829788574        5.2839418467        0.1912443906
 H          1.5790548845        2.9630429385       -1.8612041364
