  62
        -98.94220986
 C         -2.0303657829       -0.4941061810        0.4515330880
 C         -1.4888195586        0.5738369051        1.2000523103
 C         -1.7103156919        1.9390581871        0.6878698527
 C         -2.3890997003        2.0930868223       -0.4636537876
 C         -2.7254758639        3.3697878251       -1.1885940855
 C         -1.5272850906        3.9555981410       -1.9505383236
 C         -0.2160094812        3.9712489636       -1.1695234025
 H          0.0497767939        2.9477807319       -0.8958287042
 H          0.5670086510        4.3251143312       -1.8466069813
 C         -0.2050169380        4.8692826713        0.0659255091
 H          0.8145547317        4.8593177359        0.4602220399
 H         -0.4334845231        5.8936733629       -0.2378088892
 C         -1.1559017207        4.4749946836        1.1988017377
 H         -0.8519462688        5.0372761506        2.0866267589
 H         -2.1772692491        4.7737075187        0.9788667774
 C         -1.1092161977        2.9992314427        1.5792432150
 H         -1.5927417791        2.8723405831        2.5555360644
 H         -0.0633797892        2.7091986776        1.7338189753
 H         -1.3675469127        3.3514249119       -2.8472662345
 H         -1.7808403357        4.9699924627       -2.2651981819
 H         -3.5074062245        3.1215767000       -1.9101213166
 H         -3.1347062211        4.0976717357       -0.4940406045
 O         -2.8673252547        1.0306342157       -1.1718136499
 C         -2.6805689310       -0.2759837459       -0.7617183521
 O         -3.1453577343       -1.1298415123       -1.5422765640
 O         -0.8341084502        0.4009249902        2.2655547105
 C         -1.7821402098       -1.9216600430        0.9135172556
 C         -0.8550835820       -2.5659940255       -0.0877742149
 C         -1.1554053167       -3.7061157328       -0.8187725972
 C         -0.2784230780       -4.1559985750       -1.7921627373
 C          0.8912130254       -3.4730986799       -2.0686734152
 C          1.2089984000       -2.3383973127       -1.3274489929
 C          0.3543042111       -1.9225425206       -0.3227325028
 H          0.5987098347       -1.0455626228        0.2543537690
 N          2.3860625535       -1.6213350376       -1.5750330707
 S          2.5227897808        0.0184234912       -1.2583454576
 O          1.2518634939        0.7001374871       -1.3065495973
 O          3.5265581136        0.4729970083       -2.1990311160
 C          3.2293699897        0.0550313050        0.3760468030
 C          4.5349841876       -0.3801760413        0.5061633932
 C          5.1214580766       -0.3857678962        1.7603876037
 C          4.3959184577        0.0417638451        2.8628302939
 C          3.0893807298        0.4793453514        2.7165451337
 C          2.4981448408        0.4886840763        1.4621270032
 H          1.4779944424        0.8155293213        1.3288264031
 H          2.5153873007        0.8083858124        3.5681854738
 H          4.8498402069        0.0351777012        3.8412555442
 H          6.1386051850       -0.7237511711        1.8762293038
 H          5.0649072668       -0.6932350321       -0.3779444869
 H          2.8879101729       -1.8921380184       -2.4071018608
 H          1.5520457144       -3.8068280015       -2.8542037853
 H         -0.5232254616       -5.0396104129       -2.3621686391
 H         -2.0810054792       -4.2295248588       -0.6449085388
 H         -1.2504609201       -1.8324131072        1.8719604662
 C         -3.0768615134       -2.6706606775        1.1344000832
 C         -3.1050824096       -3.8570756890        2.0498564711
 C         -3.7562152640       -2.5735209668        2.4663730229
 H         -4.8344223338       -2.5241967619        2.4913403922
 H         -3.2746888618       -1.9776515804        3.2278659343
 H         -3.7382808732       -4.6923362356        1.7921498191
 H         -2.1807183312       -4.1360173441        2.5323305413
 H         -3.7072488028       -2.6866425730        0.2529392327
