  62
        -98.94290857
 C          1.9607273608        0.6138791697        0.8264769447
 C          2.8817941032        1.1790252045       -0.0895908890
 C          4.2543506422        0.6519181174       -0.0276600686
 C          4.5624013045       -0.3020902065        0.8681777070
 C          5.9019665175       -0.9670869690        0.9915424655
 C          5.9776235542       -2.2293026846        0.1209909451
 C          5.5107444544       -2.0162982244       -1.3191239365
 H          5.6383461698       -2.9650020432       -1.8450873988
 H          4.4413698031       -1.7921547271       -1.3174936812
 C          6.2601951976       -0.9086630598       -2.0728175429
 H          7.1987424487       -0.6847845054       -1.5644458135
 H          6.5114328050       -1.2735046180       -3.0709990500
 C          5.4629646130        0.3837261229       -2.2580056258
 H          5.9928894917        1.0087467680       -2.9816583917
 H          4.4826431852        0.1512570287       -2.6813441145
 C          5.2541658461        1.2251253667       -0.9926835645
 H          6.2134206429        1.3927355775       -0.4991847411
 H          4.8515318810        2.1941507606       -1.3011398932
 H          5.3491418021       -2.9999897430        0.5736213386
 H          7.0085643483       -2.5880520652        0.1223606352
 H          6.6796267854       -0.2641926217        0.6991098584
 H          6.0517705061       -1.2472916020        2.0356168856
 O          3.6577835829       -0.8087919622        1.7446739004
 C          2.3448716839       -0.3726414442        1.7402472641
 O          1.6230897830       -0.9257037432        2.5955838794
 H         -1.4250347410       -0.8457544186        1.1917458191
 C         -1.2602843278       -0.5933494947        0.1546244704
 C         -0.3035882224        0.3513839199       -0.1888516414
 C         -0.1007606255        0.6394266290       -1.5353396697
 C         -0.8370572052       -0.0099108915       -2.5085567780
 C         -1.8013271680       -0.9403629893       -2.1614297220
 C         -2.0129245489       -1.2346277285       -0.8204805605
 N         -2.9879432044       -2.1749281588       -0.4339509203
 S         -4.1736498705       -1.6909401299        0.6442746034
 O         -3.5929880524       -1.4300187075        1.9357497456
 O         -5.1762145543       -2.7309696705        0.5854123171
 C         -4.8153640977       -0.1854710366       -0.0652878545
 C         -5.8792882518       -0.2642402183       -0.9427736145
 C         -6.3297828722        0.8935099569       -1.5560728448
 C         -5.7031248234        2.1023047895       -1.2927473914
 C         -4.6344032624        2.1642417364       -0.4117980555
 C         -4.1841287288        1.0108830226        0.2106801131
 H         -3.3580822632        1.0213994947        0.9025219873
 H         -4.1448733324        3.1027213366       -0.2069061649
 H         -6.0498485056        3.0025504518       -1.7750805996
 H         -7.1631991591        0.8494931890       -2.2385599251
 H         -6.3386424592       -1.2242847874       -1.1146304938
 H         -3.4140239655       -2.6596144790       -1.2115964159
 H         -2.3797894273       -1.4430081240       -2.9219727383
 H         -0.6642359754        0.2163346961       -3.5497131384
 H          0.6548080381        1.3589514083       -1.8097970059
 C          0.4982454537        1.0291271777        0.8968812101
 H          0.1335105929        0.6514070648        1.8621442529
 C          0.3050046177        2.5328092447        0.8708390203
 C         -0.9141094584        3.1205462603        1.5123820001
 C          0.4308505585        3.3046507744        2.1480070006
 H          0.8909353567        4.2807616879        2.1168595646
 H          0.6500318763        2.7481233516        3.0482815954
 H         -1.3814166669        3.9741087950        1.0462617078
 H         -1.6056893717        2.4434998250        1.9922808528
 H          0.6800320157        3.0024272428       -0.0282034155
 O          2.5992784382        2.0771415522       -0.9249521050
