  62
        -98.94468614
 C         -1.4622440093       -0.7363996194        0.3022699507
 C         -2.4848539793       -0.7912328001       -0.6769104693
 C         -3.3899448395        0.3664809097       -0.7178312898
 C         -3.1786045297        1.4201126901        0.0897612397
 C         -3.9994408200        2.6799603700        0.1393463191
 C         -5.2545393300        2.5704981301        1.0163123591
 C         -6.3846507598        1.7202185496        0.4344160495
 H         -7.2717600299        1.9078993797        1.0427219394
 H         -6.6077721599        2.0576159291       -0.5782378207
 C         -6.1033215995        0.2110951797        0.4260508302
 H         -5.2795157895       -0.0101506398        1.1087375603
 H         -6.9792103694       -0.3245604603        0.7992304804
 C         -5.7730061494       -0.3642790109       -0.9512842695
 H         -6.6427051394       -0.2705336814       -1.6054345896
 H         -5.5533754991       -1.4284944408       -0.8338027690
 C         -4.5706366995        0.2955405090       -1.6387867198
 H         -4.2868538593       -0.3181059913       -2.4970528395
 H         -4.8392800297        1.2903119288       -1.9929131703
 H         -4.9655068899        2.1731588706        1.9921992193
 H         -5.6339447402        3.5834423201        1.1698895186
 H         -3.3555774002        3.4560997603        0.5584311687
 H         -4.2850754900        2.9727380194       -0.8713025111
 O         -2.1433743098        1.4650099507        0.9705275097
 C         -1.2921930296        0.3838106510        1.1212910702
 O         -0.4254852996        0.5404904816        2.0059216002
 H          2.1237950908       -1.3233387783        1.0721795511
 C          1.9527337309       -1.4657238689        0.0159653812
 C          0.6792888809       -1.7601881493       -0.4482050587
 C          0.4884626010       -1.9440926900       -1.8139621687
 C          1.5540416810       -1.8331486202       -2.6877177987
 C          2.8209740109       -1.5244361797       -2.2231327088
 C          3.0213330908       -1.3366944691       -0.8609554389
 N          4.2980614108       -1.0357177286       -0.3583383290
 S          4.4879006105        0.1564473220        0.8012345405
 O          5.9082755504        0.4317448123        0.7960918104
 O          3.9328489706       -0.2803909975        2.0557630506
 C          3.6041158502        1.5618695015        0.1504180498
 C          4.2682523101        2.3673991312       -0.7558326506
 C          3.5953037399        3.4317866808       -1.3311678011
 C          2.2687453798        3.6672561307       -1.0007761013
 C          1.6177451700        2.8500806910       -0.0906951809
 C          2.2869551302        1.7858406414        0.4948386796
 H          1.7893131003        1.1491328217        1.2096181499
 H          0.5863011799        3.0235857409        0.1754783690
 H          1.7398822997        4.4927582504       -1.4506409217
 H          4.1024502898        4.0720410806       -2.0348504314
 H          5.3019918101        2.1550095514       -0.9761398305
 H          5.0140910008       -0.9587566687       -1.0665374490
 H          3.6502483909       -1.4332644499       -2.9080126088
 H          1.3956430210       -1.9806562308       -3.7452590386
 H         -0.5025973790       -2.1613549004       -2.1812328186
 C         -0.4643678691       -1.8611601491        0.5325241713
 H         -0.0512070291       -1.6914927086        1.5367311712
 C         -1.0912011988       -3.2411639793        0.5058531419
 C         -0.3645975786       -4.3734936188        1.1640050125
 C         -1.6190766187       -3.8292327588        1.7778620122
 H         -2.5174104086       -4.4267342890        1.7360789724
 H         -1.5304528288       -3.2377632283        2.6781382419
 H         -0.3994485184       -5.3472685290        0.7003187029
 H          0.5747768114       -4.1506094584        1.6483416924
 H         -1.6380179587       -3.4521986298       -0.4030511080
 O         -2.6564603791       -1.7404007805       -1.4852347888
