  62
        -98.93714704
 C         -2.5582752449       -1.2508896924        0.2680178931
 C         -2.7278945982       -0.3333924989       -0.7944857257
 C         -3.7898797814        0.6783205198       -0.6309539182
 C         -4.5282344714        0.6987068193        0.4935513233
 C         -5.6869597780        1.5791903874        0.9122791871
 C         -5.9774790680        2.8905612330        0.1865041885
 C         -4.9041594772        3.9659627318        0.3499998915
 H         -5.1746791576        4.8154652172       -0.2809923684
 H         -4.9090797296        4.3077282548        1.3880391077
 C         -3.4790061702        3.5328284909        0.0149202030
 H         -2.8240967215        4.3956012578        0.1639438297
 H         -3.1552976220        2.7602362898        0.7155504768
 C         -3.2661369536        3.0295594687       -1.4116546172
 H         -2.1889656246        2.9160100544       -1.5621644240
 H         -3.6255024011        3.7759079453       -2.1228396732
 C         -3.9238299717        1.6783315332       -1.7434177540
 H         -4.9673946263        1.8028110499       -2.0219552911
 H         -3.4033321391        1.2528115742       -2.6062859806
 H         -6.9042150422        3.2824504911        0.6145500964
 H         -6.1719285504        2.7052094455       -0.8658270185
 H         -5.5303071158        1.7864382599        1.9755541633
 H         -6.5789504099        0.9458422089        0.8504484830
 O         -4.3324146914       -0.2106795977        1.4919312118
 C         -3.3620154923       -1.1889796398        1.4105204168
 O         -3.3133253936       -1.9403437270        2.4045408835
 O         -2.0425686671       -0.3352321666       -1.8535396960
 C         -1.5231609608       -2.3656541358        0.2646186027
 C         -0.1427303402       -1.8498884002        0.5972288552
 C          0.5213398702       -2.2828100412        1.7390483994
 C          1.7937927851       -1.8234997599        2.0306663502
 C          2.4278067846       -0.9221387707        1.1943403545
 C          1.7725214392       -0.4823984447        0.0516893050
 C          0.4994018475       -0.9503763738       -0.2416684825
 H         -0.0087884759       -0.6006267455       -1.1281887946
 N          2.3945487357        0.4518091648       -0.7945341813
 S          3.9647249656        0.1484684346       -1.3014149202
 O          4.1146796822        0.8822734064       -2.5390196864
 O          4.2404660184       -1.2686229952       -1.3573827685
 C          4.9730463821        0.9168722913       -0.0507479706
 C          5.9488718874        0.1833964159        0.5950862655
 C          6.7310661326        0.8071325460        1.5548212343
 C          6.5251731603        2.1461919755        1.8490492974
 C          5.5421592364        2.8694582707        1.1898118551
 C          4.7577758583        2.2522523166        0.2286719746
 H          3.9862679973        2.7788588234       -0.3082165480
 H          5.3850294724        3.9106211799        1.4215871171
 H          7.1343784726        2.6295226281        2.5964306587
 H          7.4959033723        0.2468215911        2.0681967288
 H          6.0692832386       -0.8567337311        0.3370718935
 H          1.8138196421        0.7337124101       -1.5714684507
 H          3.4182668174       -0.5601323459        1.4172376580
 H          2.2970773913       -2.1691437002        2.9207328266
 H          0.0280536520       -2.9768139385        2.4041592426
 H         -1.8265819865       -3.0467651602        1.0708690143
 C         -1.5036153199       -3.1475950070       -1.0354708390
 C         -0.9528639696       -4.5403781618       -1.0370349373
 C         -2.4255113789       -4.3158321789       -1.2028397808
 H         -2.8701182991       -4.4863408049       -2.1718505463
 H         -3.0751907407       -4.5618067569       -0.3752511398
 H         -0.3809000303       -4.8666472192       -1.8922317657
 H         -0.6043842793       -4.9415302944       -0.0973210176
 H         -1.3196076672       -2.5327401644       -1.9065942956
