  62
        -98.94472941
 C          1.4464899303        0.7338388502        0.2979897097
 C          2.4628166601        0.7845346594       -0.6879572806
 C          3.3771446296       -0.3662165309       -0.7195708103
 C          3.1764885094       -1.4130937406        0.0994066101
 C          4.0070658889       -2.6660764009        0.1593447404
 C          5.2625092591       -2.5383045410        1.0333629501
 C          6.3842979794       -1.6832897717        0.4423868695
 H          7.2737450394       -1.8572743118        1.0513565094
 H          6.6093917390       -2.0279429621       -0.5673689404
 C          6.0889958799       -0.1769538416        0.4205296990
 H          5.2634650202        0.0427237790        1.1016531691
 H          6.9598976202        0.3702738782        0.7885682086
 C          5.7528973099        0.3827953581       -0.9618539411
 H          6.6231938197        0.2909526975       -1.6154535313
 H          5.5237181403        1.4460159682       -0.8539689114
 C          4.5561208495       -0.2941401717       -1.6425973306
 H          4.8333989490       -1.2898306220       -1.9872951103
 H          4.2663654695        0.3087734281       -2.5064192208
 H          5.6508662588       -3.5465406211        1.1952822603
 H          4.9713816295       -2.1348468606        2.0061075800
 H          3.3698946087       -3.4431286205        0.5869065208
 H          4.2934464986       -2.9662369113       -0.8489137096
 O          2.1447889096       -1.4564758098        0.9844195903
 C          1.2896098800       -0.3777204294        1.1311947301
 O          0.4318337201       -0.5289077988        2.0254034304
 O          2.6225324003        1.7252427691       -1.5084315809
 C          0.4463999907        1.8572597007        0.5251552695
 C         -0.7032306095        1.7494101608       -0.4478172602
 C         -0.5213549897        1.9247243302       -1.8159643503
 C         -1.5927887499        1.8105657903       -2.6820923201
 C         -2.8571534500        1.5064704610       -2.2075037097
 C         -3.0482649397        1.3255327615       -0.8432327996
 C         -1.9739410495        1.4585200614        0.0260857501
 H         -2.1386435493        1.3210315919        1.0840016702
 N         -4.3204889398        1.0228194422       -0.3289346092
 S         -4.4844264300       -0.1871145373        0.8170895313
 O         -5.8988039901       -0.4919447168        0.8123165617
 O         -3.9355322195        0.2461156629        2.0755269910
 C         -3.5712885507       -1.5636320279        0.1456370616
 C         -4.2084613512       -2.3523298980       -0.7940970580
 C         -3.5102538817       -3.3900669185       -1.3876843578
 C         -2.1860041017       -3.6159240089       -1.0416080880
 C         -1.5626134212       -2.8163765988       -0.0972881584
 C         -2.2571634807       -1.7788623783        0.5062511514
 H         -1.7808746303       -1.1546548382        1.2460755311
 H         -0.5333146112       -2.9824483691        0.1816448615
 H         -1.6374532021       -4.4202488993       -1.5060096778
 H         -3.9959415321       -4.0171130486       -2.1178476574
 H         -5.2413661611       -2.1487644177       -1.0263684679
 H         -5.0425689099        0.9458249822       -1.0311101290
 H         -3.6909979901        1.4126890310       -2.8864041395
 H         -1.4410101701        1.9515290898       -3.7414870302
 H          0.4676037603        2.1379785797       -2.1911739806
 H          0.0397155909        1.6937066812        1.5329865396
 C          1.0719693013        3.2375934504        0.4857601488
 C          0.3581615919        4.3711150009        1.1556297286
 C          1.6230901718        3.8265627807        1.7474599785
 H          2.5210293420        4.4232235103        1.6887400481
 H          1.5504145417        3.2360546710        2.6498103687
 H          0.3855007521        5.3444095108        0.6904151982
 H         -0.5724230681        4.1495315315        1.6571748789
 H          1.6028514212        3.4473536299       -0.4328402413
