  62
        -98.94671545
 C         -2.2198189979       -0.2960178211       -0.0512168784
 C         -2.0555524655       -1.4060663974       -0.9201420460
 C         -1.3254900782       -2.5594098969       -0.3783913978
 C         -0.8868120009       -2.5218549315        0.8920405926
 C         -0.0875854221       -3.6007303382        1.5617568064
 C          1.4202629392       -3.3516374189        1.4194748173
 C          1.8704638052       -3.0472368357       -0.0095718493
 H          1.4729233445       -2.0791359566       -0.3249472812
 H          2.9583898836       -2.9446339437        0.0075718250
 C          1.4755320297       -4.1101637582       -1.0445329394
 H          2.3325949388       -4.2952971940       -1.6954655783
 H          1.2372033373       -5.0497217982       -0.5436340448
 C          0.3116656255       -3.7054223031       -1.9520487213
 H          0.2824271814       -4.3968976317       -2.7989040017
 H          0.4992444221       -2.7045589600       -2.3524283171
 C         -1.0782217714       -3.7181331928       -1.3010607361
 H         -1.8213798938       -3.6327593420       -2.0994421119
 H         -1.2354582024       -4.6678905746       -0.7850616431
 H          1.9491102678       -4.2337739361        1.7851691620
 H          1.6962202253       -2.5020561252        2.0481363928
 H         -0.3507441573       -4.5625036107        1.1258977255
 H         -0.3449266349       -3.6099388658        2.6223244139
 O         -1.0935247440       -1.4600270048        1.7083012076
 C         -1.7028268430       -0.2976958429        1.2453450532
 O         -1.7137566395        0.6223392491        2.0828176507
 O         -2.4935099314       -1.4249058578       -2.1022025842
 C         -2.8111530963        0.9737958229       -0.6433747096
 C         -1.7951017273        2.0761005940       -0.4749408655
 C         -1.9967276503        3.2200270697        0.2842554226
 C         -0.9761596071        4.1442716392        0.4307756388
 C          0.2601199147        3.9398837641       -0.1546573239
 C          0.4717551948        2.7976696067       -0.9202733499
 C         -0.5626278857        1.8923730852       -1.0916310442
 H         -0.3965246759        1.0081055307       -1.6905919595
 N          1.7141133968        2.5589292803       -1.5367283158
 S          2.4738726219        1.0740801796       -1.4242130372
 O          3.7493746886        1.2716113212       -2.0766846614
 O          1.6305042330        0.0409876111       -1.9672433609
 C          2.7387135521        0.8005598147        0.3168291061
 C          4.0035056904        0.9533050445        0.8500983797
 C          4.1831823862        0.7636367947        2.2110116800
 C          3.0998608085        0.4386918712        3.0141270107
 C          1.8348676939        0.2959209349        2.4646332559
 C          1.6529850275        0.4746937773        1.1030741388
 H          0.6800414878        0.3676572232        0.6503790942
 H          0.9778614293        0.0546793292        3.0747155321
 H          3.2391107332        0.2953283294        4.0740867941
 H          5.1652644841        0.8726125098        2.6422869658
 H          4.8155924960        1.2069350553        0.1881131153
 H          2.3892214643        3.2984116321       -1.4034977955
 H          1.0578340918        4.6547715029       -0.0210464726
 H         -1.1405010413        5.0292284744        1.0264829541
 H         -2.9416919550        3.3738226206        0.7786940495
 H         -2.8857191603        0.7516751206       -1.7216612453
 C         -4.2133430982        1.3404914304       -0.1894478141
 C         -5.1898430895        0.2748909490        0.2086630781
 C         -4.6799810893        1.2438088830        1.2307938997
 H         -5.3578547474        2.0035443754        1.5924067261
 H         -3.9777351416        0.8960989133        1.9702925973
 H         -6.2133325368        0.3615155853       -0.1240968494
 H         -4.8256944598       -0.7420339917        0.2438901820
 H         -4.6151622064        2.1635516919       -0.7735401573
