  62
        -98.94051255
 C          2.3502668910       -0.0893857642       -0.2602193670
 C          3.4846010137       -0.3334118755       -1.0704458621
 C          4.7323690218        0.3100153506       -0.6394335357
 C          4.7244160147        1.0890720979        0.4579471922
 C          5.9341473729        1.7604642370        1.0395664565
 C          6.6162166687        0.8671266906        2.0852693010
 C          6.8602238631       -0.5651277104        1.6098446632
 H          5.8976889685       -1.0602525067        1.4618706795
 H          7.3717839435       -1.0931691735        2.4175085785
 C          7.6888279106       -0.6741660619        0.3222069296
 H          8.4390174314       -1.4566997637        0.4538647647
 H          8.2227882585        0.2600249590        0.1448801879
 C          6.8793193936       -1.0389526436       -0.9234933201
 H          6.2698789495       -1.9228313603       -0.7187093903
 H          7.5803246473       -1.3024223671       -1.7199738084
 C          5.9615777748        0.0627706252       -1.4682277545
 H          5.6005367702       -0.2606749048       -2.4489561313
 H          6.5309570277        0.9851978338       -1.5986797812
 H          5.9821404295        0.8290445912        2.9740167372
 H          7.5660676713        1.3265711292        2.3646554063
 H          6.6317546056        1.9976404199        0.2387345131
 H          5.6152482932        2.6873749889        1.5189756495
 O          3.6091593280        1.3185023446        1.1978854111
 C          2.3968327225        0.7316893432        0.8662188920
 O          1.4598746961        1.0178699820        1.6353485625
 H         -1.5634695833       -0.6325745874        0.3246421688
 C         -1.3029913774        0.1991440756       -0.3080551785
 C         -0.0356019060        0.3028082088       -0.8573614869
 C          0.2494196875        1.3973261141       -1.6708218689
 C         -0.7061964596        2.3633561777       -1.9165298667
 C         -1.9744417604        2.2507420980       -1.3736435498
 C         -2.2701671495        1.1623984482       -0.5628828070
 N         -3.5405497003        1.0233050562        0.0186407521
 S         -4.1817674171       -0.5321530009        0.1661824395
 O         -3.7057559917       -1.1241248246        1.3908788558
 O         -3.9379174391       -1.2827606913       -1.0447761132
 C         -5.9192694736       -0.1560972350        0.3160169923
 C         -6.4275999257        0.1753922072        1.5577717525
 C         -7.7718243489        0.4942874686        1.6676941740
 C         -8.5807687328        0.4775843744        0.5411123677
 C         -8.0569888861        0.1409197714       -0.6980805697
 C         -6.7133571047       -0.1781358638       -0.8152966454
 H         -6.2648376290       -0.4557121849       -1.7556469582
 H         -8.6890585756        0.1247413502       -1.5712867031
 H         -9.6267217895        0.7252068229        0.6301402461
 H         -8.1831020656        0.7531799149        2.6300000200
 H         -5.7634219600        0.1659218732        2.4063027653
 H         -4.2176678421        1.6766936649       -0.3505580483
 H         -2.7237378439        3.0025399007       -1.5699966162
 H         -0.4663157817        3.2078234757       -2.5452340344
 H          1.2364378605        1.4800756168       -2.1058758415
 C          1.0313710582       -0.7396808874       -0.6319986541
 H          1.2146932111       -1.2472012125       -1.5918037137
 C          0.6482680894       -1.7806477230        0.3987500571
 C         -0.2075246833       -2.9481305401        0.0112172783
 C          1.2461354920       -3.1516624549        0.3125479855
 H          1.5183016100       -3.6546177514        1.2283356869
 H          1.9158825554       -3.3487051373       -0.5119234093
 H         -0.5315302269       -3.0103579217       -1.0170605826
 H         -0.9415448182       -3.3044453688        0.7190362240
 H          0.5099516910       -1.3555051750        1.3874339922
 O          3.4528815932       -1.0501789072       -2.1073330423
