  62
        -98.93939507
 C         -1.3495575404       -1.1595338893       -0.1260818509
 C         -2.2329576302       -0.6272352800        0.8495679696
 C         -2.9864747801        0.5807000404        0.4783682807
 C         -2.8037210201        1.1203236314       -0.7382614288
 C         -3.4317738800        2.3630494220       -1.3179513577
 C         -4.9361935599        2.5659872720       -1.0868516075
 C         -5.7640208601        1.2750079120       -1.0058078985
 H         -5.1673344002        0.4240284122       -1.3389073293
 H         -6.6164659702        1.3581973027       -1.6826916384
 C         -6.3066443100        1.0005227109        0.3991443613
 H         -7.1571709601        0.3191303711        0.3194799108
 H         -6.6784496799        1.9376389406        0.8192987621
 C         -5.3140979801        0.3726479800        1.3771583807
 H         -5.1139622802       -0.6626084798        1.0879857798
 H         -5.7860512600        0.3434125392        2.3621469807
 C         -3.9608082800        1.0917039397        1.4997410012
 H         -3.5355322699        0.8427280888        2.4754627310
 H         -4.0819105098        2.1703284597        1.4365106321
 H         -5.3015614699        3.1806090427       -1.9113076569
 H         -5.0901815698        3.1420815112       -0.1754579570
 H         -3.2300518101        2.3097561029       -2.3906145078
 H         -2.8929576398        3.2339189816       -0.9325601470
 O         -1.9378274203        0.5840987921       -1.6426722394
 C         -1.1935443404       -0.5541934683       -1.3715978104
 O         -0.4566204205       -0.8945755576       -2.3193608707
 O         -2.3842762602       -1.1411200610        1.9881002192
 C         -0.5656373205       -2.4032199897        0.2656743380
 C          0.8439401396       -2.0051161202        0.6292082082
 C          1.2461031397       -1.9407402514        1.9586460983
 C          2.5143390198       -1.4981768719        2.2930835985
 C          3.3986224097       -1.0883059712        1.3111347788
 C          2.9992166996       -1.1383705000       -0.0178758112
 C          1.7420521996       -1.6152419995       -0.3539487215
 H          1.4369891895       -1.6307011986       -1.3890517715
 N          3.8585731596       -0.6359295192       -1.0183704208
 S          4.3271132799        0.9568762305       -0.7715301295
 O          4.4756052398        1.5360217816       -2.0882080790
 O          5.5085672599        0.9770755196        0.0552272304
 C          2.9735913300        1.7170972199        0.1142602912
 C          3.1927923602        2.2341449388        1.3749532517
 C          2.1271464903        2.7780285084        2.0735888322
 C          0.8631272903        2.7893922290        1.5050536023
 C          0.6601148601        2.2701846101        0.2360558319
 C          1.7219659000        1.7282645806       -0.4692556687
 H          1.5787858099        1.3136560514       -1.4553489390
 H         -0.3241268899        2.2714521206       -0.2053481381
 H          0.0288949904        3.2010679287        2.0507954427
 H          2.2826471704        3.1837147775        3.0601478425
 H          4.1897274102        2.1953364983        1.7827258715
 H          3.4722217195       -0.7390663384       -1.9468482609
 H          4.3807390998       -0.7131294715        1.5500661491
 H          2.8127379998       -1.4579379728        3.3292546286
 H          0.5467568997       -2.2209713920        2.7326480781
 H         -1.0550553705       -2.7755088804        1.1751653877
 C         -0.6079025007       -3.4950298688       -0.7836485829
 C         -0.2754171809       -4.8995102592       -0.3811179441
 C         -1.6884488409       -4.5306687888       -0.7174092037
 H         -2.1121431410       -4.8925744679       -1.6423053540
 H         -2.4026240508       -4.4580395193        0.0898792564
 H          0.2741647490       -5.5178266287       -1.0740932947
 H         -0.0313167508       -5.0767938201        0.6553495157
 H         -0.3008093408       -3.1673422780       -1.7682385027
