  62
        -98.93857375
 C         -2.3997881869       -1.2133867669       -0.0813357441
 C         -3.4683946962       -0.7805519252        0.7428841035
 C         -4.3632897599        0.2441925474        0.1822736875
 C         -4.1216082651        0.7247766300       -1.0493327914
 C         -4.9119463262        1.7407998874       -1.8358180533
 C         -5.4388709325        2.9690808177       -1.0824739390
 C         -4.5295149304        3.4761197608        0.0463726071
 H         -3.5546761433        2.9877378281       -0.0095191586
 H         -4.3631729604        4.5469169429       -0.0858317111
 C         -5.1297238729        3.2619453004        1.4379862897
 H         -6.1886411984        3.5275948599        1.4070954561
 H         -4.6415790693        3.9435229578        2.1386704670
 C         -4.9839377618        1.8502099930        2.0042263467
 H         -3.9357910521        1.6561211839        2.2477020904
 H         -5.5443774668        1.8040597329        2.9409692902
 C         -5.4665201856        0.7156589785        1.0856796819
 H         -5.7250494175       -0.1393805476        1.7160656270
 H         -6.3485489043        1.0114329047        0.5232340068
 H         -6.4247632764        2.7517395223       -0.6741440010
 H         -5.5731847930        3.7583938778       -1.8240984906
 H         -4.2409941903        2.0627530537       -2.6361640288
 H         -5.7519352194        1.2240181206       -2.3093866509
 O         -3.0728588286        0.2903949082       -1.8038045697
 C         -2.1875533714       -0.6743025644       -1.3489143813
 O         -1.2871400489       -0.9546274288       -2.1649243075
 H          0.7618424094       -2.0203696061       -1.1216842452
 C          0.8887489853       -1.5395421850       -0.1646313258
 C         -0.1323705567       -1.5882871005        0.7716329254
 C          0.0429591202       -0.9263488074        1.9838182521
 C          1.2124776591       -0.2394517671        2.2500088158
 C          2.2270679178       -0.1876143264        1.3096628974
 C          2.0537445013       -0.8284998406        0.0908987542
 N          3.0708220849       -0.7653540690       -0.8785681964
 S          3.7112284295        0.7454552320       -1.2387165518
 O          2.7609770649        1.8062115394       -0.9941414944
 O          4.2184948122        0.6315854947       -2.5889958434
 C          5.0900660496        0.8896281178       -0.1189479241
 C          5.2037402046        1.9983006790        0.6967551978
 C          6.2889979533        2.0914341109        1.5544632658
 C          7.2369096110        1.0801051603        1.5803528799
 C          7.1103272953       -0.0252150755        0.7520407621
 C          6.0285917739       -0.1237797883       -0.1082786980
 H          5.8945679525       -0.9635283513       -0.7693461511
 H          7.8495403542       -0.8096499994        0.7746998831
 H          8.0792949244        1.1540482041        2.2498383297
 H          6.3890206679        2.9506129871        2.1981616119
 H          4.4386598085        2.7568609926        0.6465956718
 H          2.8350656719       -1.2547574300       -1.7305476606
 H          3.1367459803        0.3565325684        1.5044128703
 H          1.3359796158        0.2647718783        3.1964157751
 H         -0.7586724275       -0.9457374513        2.7088922116
 C         -1.4505674128       -2.2607482741        0.4788021637
 H         -1.8947029125       -2.5703000744        1.4342905969
 C         -1.3338080136       -3.4745178661       -0.4186309820
 C         -0.7228911790       -4.7294734177        0.1271717138
 C         -2.1947376331       -4.6701749619       -0.1470223317
 H         -2.5869533506       -5.2225452388       -0.9877927150
 H         -2.8704027995       -4.6185311578        0.6940285202
 H         -0.1019237021       -5.3263092580       -0.5231074293
 H         -0.3982133685       -4.7160611577        1.1564981616
 H         -1.1476550546       -3.2286265602       -1.4568406275
 O         -3.6750976579       -1.2422595172        1.8960408711
