  62
        -98.93704454
 C          1.8543026598        0.6985197100        0.7672775793
 C          2.3117943095        0.3771954897       -0.5308957207
 C          3.7737997595        0.4037043899       -0.7431640010
 C          4.5723730596        0.7517880804        0.2831045587
 C          6.0764530196        0.8070603407        0.3120688283
 C          6.7159279199       -0.5877133691        0.4180238687
 C          6.0816677999       -1.6563629096       -0.4689754008
 H          6.5368923002       -2.6160385294       -0.2097720906
 H          5.0175315500       -1.7306643097       -0.2368440605
 C          6.2596009996       -1.4461271600       -1.9707041209
 H          7.3264149795       -1.4327005499       -2.2055026312
 H          5.8197598196       -2.3110493303       -2.4738801505
 C          5.6208373792       -0.1826860004       -2.5501247412
 H          5.6352250390       -0.2823265008       -3.6395162312
 H          6.2133015991        0.6969324098       -2.3134634417
 C          4.1635826692        0.0377621095       -2.1550711810
 H          3.5860908194       -0.8611497607       -2.3993692505
 H          3.7474126389        0.8284549292       -2.7909805312
 H          6.6256385902       -0.9212533088        1.4547763088
 H          7.7781329499       -0.5000952390        0.1838488384
 H          6.4464490693        1.3400577905       -0.5586029819
 H          6.3527417797        1.3837948111        1.1975208281
 O          4.0814524098        1.0731412307        1.5151018887
 C          2.7293870999        1.0497466106        1.7930335090
 O          2.4344192701        1.3532149609        2.9678568489
 O          1.5407208594        0.0692928092       -1.4769679604
 C          0.3698080098        0.6804309598        1.0741216496
 C         -0.2361431300       -0.6723840204        0.7856993102
 C          0.5033198903       -1.8285066501        1.0188995205
 C         -0.0337140595       -3.0758251403        0.7671675410
 C         -1.3324797196       -3.2001942108        0.3068338714
 C         -2.0897763398       -2.0555921610        0.0960872711
 C         -1.5385824700       -0.8023524108        0.3262596306
 H         -2.1429688703        0.0725270890        0.1516341104
 N         -3.4143053299       -2.1432340114       -0.3608979086
 S         -4.5905215100       -1.2026354714        0.3722016114
 O         -4.2779597597       -0.9455175208        1.7585625012
 O         -5.8314241099       -1.9054394317        0.1209822519
 C         -4.6075519005        0.3207701883       -0.5482751091
 C         -4.8430060905        1.5028211185        0.1250375905
 C         -4.9146885409        2.6843696482       -0.5967240299
 C         -4.7496965912        2.6624931678       -1.9729453299
 C         -4.5139905511        1.4663956976       -2.6341184196
 C         -4.4466188908        0.2812668779       -1.9191938392
 H         -4.2643691307       -0.6646197523       -2.4011006889
 H         -4.3827862714        1.4540588272       -3.7041684796
 H         -4.8032747515        3.5829715976       -2.5327544802
 H         -5.0966316910        3.6148548584       -0.0826037602
 H         -4.9526223403        1.4763135288        1.1973502905
 H         -3.7439865398       -3.0851775815       -0.5160235082
 H         -1.7563448894       -4.1744159509        0.1150573418
 H          0.5603721907       -3.9608211002        0.9400823812
 H          1.5137909504       -1.7371235998        1.3938957302
 H          0.2798235100        0.8643803002        2.1558067596
 C         -0.3185430306        1.8084528395        0.3305974194
 C         -1.4890208406        2.5220915194        0.9347718794
 C         -0.1600889307        3.2079425397        0.8418328289
 H         -0.0404847010        4.0086112094        0.1277929586
 H          0.4150865794        3.3398271301        1.7471007687
 H         -2.2812182408        2.8528577890        0.2800026295
 H         -1.8275429703        2.1967243097        1.9073977596
 H         -0.3067446008        1.6615371191       -0.7433630806
