  62
        -98.94497132
 C         -2.0613373330        1.3385790935       -0.0286147559
 C         -2.6519353005        0.6695290938       -1.1270024641
 C         -3.8338436109       -0.1436901041       -0.8219027703
 C         -4.2861398765       -0.2146694568        0.4435498687
 C         -5.4932084657       -0.9828585481        0.9094168951
 C         -5.2184303540       -2.4665066274        1.1906258244
 C         -5.0036446404       -3.3346274131       -0.0498586539
 H         -5.0369607577       -4.3756245886        0.2776567028
 H         -5.8309657632       -3.1852769462       -0.7443446235
 C         -3.6717673211       -3.0879145005       -0.7723730512
 H         -2.9896582380       -2.5549282134       -0.1051268341
 H         -3.2024352478       -4.0459283836       -1.0084377053
 C         -3.7970879635       -2.3087792347       -2.0819491963
 H         -4.3717175833       -2.8949147857       -2.8024794139
 H         -2.7942058398       -2.1631696484       -2.4919625884
 C         -4.4552498485       -0.9301888949       -1.9366661880
 H         -4.2968342500       -0.3754672912       -2.8647291895
 H         -5.5269074442       -1.0409385635       -1.7737641615
 H         -4.3462585743       -2.5427156910        1.8443582308
 H         -6.0784598523       -2.8593797405        1.7377553158
 H         -5.8209041177       -0.5120986467        1.8387554981
 H         -6.2924398051       -0.8927084752        0.1732578676
 O         -3.6862865249        0.4384115338        1.4734290713
 C         -2.5479796184        1.2077202741        1.2724026673
 O         -2.0828000040        1.7132429410        2.3104341248
 H          0.0090053983       -0.3162351902       -0.4755051392
 C          0.6332464566        0.2357981771        0.2163755412
 C          0.3518300139        1.5762630137        0.4557679361
 C          1.1701087068        2.2778334091        1.3300733253
 C          2.2174540638        1.6397289827        1.9736930844
 C          2.4793529120        0.3010528455        1.7514051863
 C          1.6814576539       -0.4044484909        0.8581018704
 N          1.9519833229       -1.7590419010        0.6053116586
 S          3.5468355276       -2.2244526760        0.4088784613
 O          3.4970523618       -3.3890395062       -0.4472694613
 O          4.1579650545       -2.4209189318        1.6999979212
 C          4.3400726703       -0.8636775998       -0.4300730491
 C          3.8331425664       -0.4633260060       -1.6505618747
 C          4.4217579162        0.6085553461       -2.3014074145
 C          5.5026778006        1.2578797895       -1.7245189742
 C          6.0040973766        0.8397141900       -0.5019338130
 C          5.4175047360       -0.2302531694        0.1548565688
 H          5.7721297087       -0.5859212085        1.1085605955
 H          6.8460448765        1.3447287896       -0.0567237791
 H          5.9559097620        2.0942122693       -2.2327703971
 H          4.0324040935        0.9346112877       -3.2525958567
 H          2.9938485676       -0.9901785470       -2.0761060283
 H          1.3535738487       -2.1782292999       -0.0905210687
 H          3.2777321915       -0.2126773372        2.2618225717
 H          2.8363149655        2.1931992057        2.6630653468
 H          0.9809918681        3.3211002489        1.5199702101
 C         -0.8241295427        2.1861880616       -0.2670535927
 H         -0.6309674179        2.1171592910       -1.3479175565
 C         -1.0826869416        3.6339393777        0.0888908148
 C         -0.2985162864        4.7222853975       -0.5793893587
 C         -1.7429253328        4.5204534698       -0.9228200554
 H         -2.4640193361        5.2466359482       -0.5787465317
 H         -1.9872688701        4.0851287400       -1.8808995372
 H         -0.0276105931        5.5924871559       -0.0010835339
 H          0.4409027953        4.4287780510       -1.3087874162
 H         -1.3648423844        3.7655668794        1.1271147723
 O         -2.2091247990        0.7449369355       -2.3053618848
