  62
        -98.94414559
 C          2.5254663070        1.1533751522       -0.0745499843
 C          3.2198031945        0.3862097740        0.8905264853
 C          4.0145749061       -0.7311446218        0.3689950008
 C          4.0539432959       -0.9602850080       -0.9566170356
 C          4.8379004074       -2.0453555815       -1.6439347156
 C          4.1205711806       -3.4015745009       -1.6873698884
 C          4.0478524342       -4.1414601287       -0.3510468036
 H          3.7152513238       -5.1590729805       -0.5649894349
 H          5.0467865324       -4.2094326636        0.0806862032
 C          3.0870763963       -3.5133110172        0.6684183359
 H          2.4088446175       -2.8277383243        0.1541779450
 H          2.4700295561       -4.2944577125        1.1187387514
 C          3.7755103499       -2.7652973840        1.8105066958
 H          3.0032102577       -2.3348706698        2.4540144523
 H          4.3571736070       -3.4684878080        2.4105968565
 C          4.7004798409       -1.6288464184        1.3543294381
 H          4.9606454402       -1.0271455591        2.2286534961
 H          5.6151299538       -2.0377283739        0.9258886074
 H          3.1107246846       -3.2501174701       -2.0756804618
 H          4.6589455145       -4.0325004728       -2.3981432035
 H          4.9988718458       -1.7086739316       -2.6701939086
 H          5.8076399774       -2.1603718324       -1.1591781804
 O          3.3751798877       -0.1962818521       -1.8526134372
 C          2.5741102097        0.8585942352       -1.4373877165
 O          1.9765401784        1.4419398547       -2.3602360910
 O          3.1732586774        0.6208072914        2.1292075960
 C          1.6614120387        2.3111919271        0.3896527747
 C          0.2147765682        2.0529316316        0.0438478359
 C         -0.6140260629        2.9995167164       -0.5429095299
 C         -1.9359541897        2.6966542097       -0.8220780963
 C         -2.4601005902        1.4534434025       -0.5215617609
 C         -1.6445173300        0.5031057965        0.0796058670
 C         -0.3226818855        0.8106769342        0.3604589036
 H          0.3110441386        0.0690976067        0.8327909889
 N         -2.1669383262       -0.7669670701        0.3848340019
 S         -3.5815197371       -0.8366120999        1.2897479003
 O         -3.7104266531        0.3122650522        2.1560345297
 O         -3.5518842290       -2.1301414841        1.9369336815
 C         -4.8756203149       -0.8287631211        0.0674510984
 C         -5.8621551666        0.1365754722        0.1154156198
 C         -6.8651740737        0.1172762958       -0.8413361865
 C         -6.8639514491       -0.8619367970       -1.8228446000
 C         -5.8671366708       -1.8258987416       -1.8553429186
 C         -4.8623595026       -1.8131068562       -0.9012217674
 H         -4.0723651094       -2.5454393202       -0.8888674889
 H         -5.8694904126       -2.5858438818       -2.6200533881
 H         -7.6445647698       -0.8745392047       -2.5669914598
 H         -7.6412380952        0.8652602149       -0.8175703386
 H         -5.8186709878        0.8812518921        0.8940822591
 H         -1.4810142180       -1.4053133591        0.7614115098
 H         -3.4866483247        1.2126985201       -0.7443227228
 H         -2.5662606307        3.4403170169       -1.2851752216
 H         -0.2244679106        3.9740208679       -0.7866015597
 H          1.7483192367        2.3175291970        1.4871252115
 C          2.1929721771        3.6233016713       -0.1465712004
 C          1.9755035124        4.8942938289        0.6171998033
 C          3.3405917696        4.2794568898        0.5588522136
 H          4.1019634706        4.7633428284       -0.0342000371
 H          3.7221487829        3.7922235744        1.4444884902
 H          1.8016702021        5.8050739886        0.0643833861
 H          1.4311504486        4.8316071132        1.5474499280
 H          2.1816475773        3.6651416305       -1.2297334480
