  62
        -98.92855645
 C         -2.2887085204       -0.3642803295        0.8886893404
 C         -3.3333866303       -1.0419233001        0.2122759409
 C         -4.6526809504       -0.3819717601        0.2374737902
 C         -4.7943983504        0.7948737205        0.8712575991
 C         -6.0470049804        1.6237324705        0.9091275882
 C         -6.2282126403        2.3685839093       -0.4289545125
 C         -7.4522426002        1.9306585486       -1.2336995122
 H         -7.3565214701        2.3597618077       -2.2333639826
 H         -8.3479987803        2.3564854590       -0.7767345227
 C         -7.6633252002        0.4186451585       -1.3579679809
 H         -8.3910147201        0.2639192377       -2.1574691508
 H         -8.1196583803        0.0355127193       -0.4440561706
 C         -6.4099739201       -0.4109012218       -1.6652760800
 H         -5.6542725101        0.2013569478       -2.1576847304
 H         -6.6881785701       -1.1988486024       -2.3680539793
 C         -5.7846190603       -1.1042740407       -0.4403531793
 H         -5.3539176202       -2.0575054410       -0.7610547784
 H         -6.5655217304       -1.3260773600        0.2922129908
 H         -5.3257947102        2.2224239288       -1.0263079122
 H         -6.3085637003        3.4402213795       -0.2404165134
 H         -5.9397682605        2.3348086713        1.7284929776
 H         -6.9040915005        0.9851695607        1.1113175487
 O         -3.7651246905        1.4188954711        1.5030756487
 C         -2.5004380905        0.8590580111        1.5293745493
 O         -1.6571251806        1.5344754517        2.1547629188
 O         -3.1961951103       -2.1381099006       -0.3873073081
 C         -0.8702438404       -0.9007817994        0.9796923911
 C         -0.0304639803       -0.4696549104       -0.1949259592
 C         -0.4964711102       -0.5673533316       -1.5023336992
 C          0.3104096200       -0.1952380426       -2.5621517794
 C          1.5996590999        0.2573277576       -2.3431598497
 C          2.0718140398        0.3644794488       -1.0404220297
 C          1.2502748397        0.0153469298        0.0224262805
 H          1.6253690996        0.1217746807        1.0299568604
 N          3.3695939698        0.8283998390       -0.7764944800
 S          4.2032772396        0.1178271602        0.5106878907
 O          3.9486787996       -1.3043653198        0.5330257420
 O          3.8947931995        0.8402738513        1.7192884300
 C          5.8896644797        0.4384167498        0.0293007606
 C          6.4438455396        1.6704747500        0.3213528096
 C          7.7442541097        1.9314089897       -0.0804311505
 C          8.4638326697        0.9626979091       -0.7644397696
 C          7.8946034698       -0.2695092112       -1.0488930285
 C          6.5942847697       -0.5371424808       -0.6506501984
 H          6.1139607098       -1.4834521810       -0.8410770076
 H          8.4576773498       -1.0214907617       -1.5776889178
 H          9.4759586798        1.1683162488       -1.0750509397
 H          8.1913300796        2.8868180399        0.1419906187
 H          5.8493184596        2.3878202405        0.8628688788
 H          3.9407810498        0.9027294783       -1.6070991800
 H          2.2331521700        0.5317647269       -3.1729745299
 H         -0.0631865899       -0.2749201035       -3.5719929294
 H         -1.4899078001       -0.9509142818       -1.6782197889
 H         -0.4391337905       -0.4259392586        1.8767082907
 C         -0.8114692404       -2.4068222892        1.2033916724
 C         -0.3752698603       -3.3849796901        0.1590710434
 C          0.5145085895       -3.0984344091        1.3289600732
 H          0.6287557495       -3.8552244084        2.0907798139
 H          1.4088873496       -2.5166241392        1.1537743928
 H         -0.8924662903       -4.3311161302        0.1147993142
 H         -0.0852729002       -3.0032761210       -0.8069539669
 H         -1.5960967005       -2.7418524986        1.8748935627
