  62
        -98.94449012
 C         -2.6631236075       -1.2644573959        0.1221269769
 C         -2.5476736225       -0.2828871394       -0.8920834771
 C         -3.4607732901        0.8648599253       -0.7803923427
 C         -4.3403659904        0.9170589082        0.2358774927
 C         -5.2832939069        2.0539407105        0.5003388908
 C         -4.6510534920        3.0913201100        1.4387998080
 C         -3.2434993768        3.5230802839        1.0262957213
 H         -2.9123497912        4.2794091631        1.7412650729
 H         -2.5627258793        2.6735732177        1.1226612069
 C         -3.1439950973        4.0893718502       -0.3969845566
 H         -4.1337167533        4.3817883606       -0.7499933527
 H         -2.5278434914        4.9906423288       -0.3725760502
 C         -2.5031130967        3.1429686608       -1.4141642901
 H         -1.5483105139        2.7769264975       -1.0253268254
 H         -2.2851372157        3.7154304963       -2.3201603196
 C         -3.3535858591        1.9355249813       -1.8293837849
 H         -4.3445502247        2.2733160662       -2.1395682056
 H         -2.8650413955        1.4668470056       -2.6888100507
 H         -5.3037587390        3.9652209781        1.4770972825
 H         -4.5960728208        2.6628901095        2.4420945304
 H         -5.5558127033        2.5208384112       -0.4439972298
 H         -6.1823083965        1.6522397684        0.9706115013
 O         -4.4361282586       -0.0538125382        1.1790600444
 C         -3.5914342991       -1.1492873175        1.1606083296
 O         -3.7659856687       -1.9462626521        2.1035444533
 H          0.3225744455       -1.7421864938       -1.4815595325
 C          0.5643508088       -1.6236095026       -0.4373258303
 C         -0.3630348208       -1.9788414157        0.5296004834
 C         -0.0386992513       -1.7810398379        1.8690074133
 C          1.1834131183       -1.2437501583        2.2271832833
 C          2.1020440812       -0.8787767737        1.2578972007
 C          1.7806841322       -1.0567765319       -0.0803265105
 N          2.6985411910       -0.6634471939       -1.0715565097
 S          3.3070039368        0.9007703522       -0.9748830478
 O          2.3991774025        1.7880238948       -0.2850258289
 O          3.6564860835        1.2601366587       -2.3321847512
 C          4.8053161785        0.7055740026       -0.0305389060
 C          5.0026035459        1.4541300774        1.1131138555
 C          6.1792831119        1.2897627795        1.8275883449
 C          7.1331583050        0.3850596449        1.3875156562
 C          6.9212999326       -0.3570019328        0.2349678252
 C          5.7479301096       -0.1963255143       -0.4842776566
 H          5.5462260588       -0.7494620743       -1.3862266476
 H          7.6655798300       -1.0592808558       -0.1042865380
 H          8.0470364408        0.2578855854        1.9460329580
 H          6.3455596345        1.8667923681        2.7231081677
 H          4.2302852670        2.1416419390        1.4199567873
 H          2.3705616123       -0.8498815197       -2.0090981481
 H          3.0507475174       -0.4444483162        1.5282273990
 H          1.4219751111       -1.1006413666        3.2702138302
 H         -0.7680938666       -2.0383175741        2.6247237817
 C         -1.7421946006       -2.4753313437        0.1697731117
 H         -2.1072396038       -3.0972143553        0.9975745572
 C         -1.7935958571       -3.2883337171       -1.1064149543
 C         -1.2372942775       -4.6795911678       -1.1087550428
 C         -2.7182402784       -4.4642536546       -1.1849952709
 H         -3.2222313177       -4.6604477892       -2.1195240565
 H         -3.3142585952       -4.6902101662       -0.3127940041
 H         -0.8268670682       -5.0523682272       -0.1825714891
 H         -0.7224246520       -5.0281766993       -1.9908992778
 H         -1.6787722081       -2.6937993677       -2.0037019524
 O         -1.7350058118       -0.3495734178       -1.8526662951
