  62
        -98.94297609
 C          1.9578121726        0.5721490242        0.0326596058
 C          2.5406804809       -0.6964095775        0.2913390076
 C          3.8931985659       -0.9119117380       -0.2324108617
 C          4.4963903408        0.0626592581       -0.9365167017
 C          5.8608284722       -0.0111440875       -1.5663903474
 C          7.0123918595        0.3116634528       -0.6045321601
 C          7.3108022781       -0.7669887862        0.4374395903
 H          7.4338980085       -1.7287484501       -0.0615067006
 H          8.2683770650       -0.5132756886        0.8964832535
 C          6.2517762462       -0.8899099199        1.5419147249
 H          6.7449678766       -0.9498159147        2.5147591298
 H          5.6306029583        0.0086354361        1.5530288050
 C          5.3454764480       -2.1149253886        1.4183589468
 H          4.6120907382       -2.0824849536        2.2283191956
 H          5.9388748981       -3.0240711194        1.5389754474
 C          4.5802531503       -2.2041344438        0.0913537916
 H          3.8110522502       -2.9743426456        0.1894700551
 H          5.2571295188       -2.4872626121       -0.7147023681
 H          6.7919414840        1.2549143025       -0.0996372561
 H          7.9097869474        0.4600727939       -1.2095150376
 H          6.0115785094       -1.0015338799       -1.9969680109
 H          5.8700741581        0.7245367570       -2.3734533298
 O          3.9008233953        1.2576847796       -1.1787276896
 C          2.6335932683        1.5537230122       -0.6934817966
 O          2.2519732504        2.7033005508       -0.9849579621
 O          1.9558653228       -1.6080931595        0.9366282783
 C          0.5623030788        0.8082387275        0.5875128951
 C         -0.4845273373        0.6278037758       -0.4862124882
 C         -0.6011149391        1.5167488793       -1.5508569602
 C         -1.5601759628        1.3180766978       -2.5264046709
 C         -2.4324200561        0.2458154959       -2.4517708487
 C         -2.3251248269       -0.6477618471       -1.3936911124
 C         -1.3503558043       -0.4550546687       -0.4233323638
 H         -1.2695333163       -1.1677399746        0.3840183437
 N         -3.1972655643       -1.7484551017       -1.2898235910
 S         -4.0816749898       -1.9397874488        0.1186772259
 O         -3.2030438627       -2.2395665031        1.2190310602
 O         -5.0784512844       -2.9367046867       -0.2015510600
 C         -4.8626039883       -0.3545329248        0.3615884628
 C         -4.1655886915        0.6456581252        1.0095225778
 C         -4.7445438254        1.8996068229        1.1227612354
 C         -6.0041669768        2.1300706231        0.5913548860
 C         -6.6937426580        1.1136679497       -0.0525253521
 C         -6.1169095428       -0.1399595708       -0.1757169443
 H         -6.6181938273       -0.9599108114       -0.6641762021
 H         -7.6748565127        1.2950690659       -0.4609620159
 H         -6.4506667700        3.1076869741        0.6818034397
 H         -4.2063032707        2.6888810788        1.6225359111
 H         -3.1900091028        0.4294264586        1.4126993923
 H         -3.8041079112       -1.8620535139       -2.0898147701
 H         -3.1843873041        0.0951746321       -3.2116741353
 H         -1.6346736008        2.0106739158       -3.3509223048
 H          0.0829298940        2.3481237123       -1.6182528027
 H          0.4147103781        0.0102125705        1.3285640131
 C          0.4116114845        2.1439670306        1.2882482015
 C         -0.6294851333        2.2933204681        2.3550986598
 C          0.8231151260        2.2648985627        2.7234000396
 H          1.2946953814        3.1800112283        3.0484988821
 H          1.2085345643        1.3797588463        3.2090650124
 H         -1.1591883737        3.2302310808        2.4306891935
 H         -1.2248595628        1.4261805457        2.6004049912
 H          0.6039186431        2.9938555781        0.6472598873
