  62
        -98.94116137
 C          1.9519756707        0.9052069857       -0.2157001744
 C          2.5798815414        0.3181286321        0.9135746832
 C          2.9073294260       -1.1085033439        0.8198723819
 C          2.5603675894       -1.7851345648       -0.2895364994
 C          2.8581398680       -3.2350503993       -0.5393474022
 C          4.2027680702       -3.4126830319       -1.2585702514
 C          5.3525000911       -2.6352929159       -0.6176509557
 H          6.2548762983       -2.8584889003       -1.1908423394
 H          5.1596897655       -1.5653195027       -0.7238022853
 C          5.5922846513       -2.9623735696        0.8628451827
 H          5.1139479184       -3.9094077890        1.1146974968
 H          6.6650367317       -3.0867383520        1.0243720339
 C          5.1178906231       -1.8814766488        1.8359407008
 H          5.5189049602       -0.9119779042        1.5303239818
 H          5.5278297478       -2.1092923853        2.8233832809
 C          3.5980474822       -1.7445221893        1.9936552773
 H          3.1599972354       -2.7202934210        2.2140080556
 H          3.4088771621       -1.0832353715        2.8443084358
 H          4.4455412849       -4.4766783960       -1.2778380683
 H          4.0899910742       -3.0702545974       -2.2898153518
 H          2.8682590311       -3.7648093587        0.4114086055
 H          2.0616085922       -3.6441896929       -1.1635131753
 O          1.9359400737       -1.2016786217       -1.3418620304
 C          1.6136288558        0.1498789852       -1.3392769156
 O          1.0566999434        0.5234141063       -2.3908745966
 H         -0.7225553627        1.1565201923       -0.8215714876
 C         -0.8516900752        1.8202426858        0.0203902960
 C          0.2263253312        2.5364667500        0.5199308696
 C          0.0200839260        3.3913395170        1.5964944599
 C         -1.2332941286        3.5138260590        2.1688405341
 C         -2.2971595774        2.7696283716        1.6932879268
 C         -2.1020342645        1.9161733231        0.6127310207
 N         -3.1593976170        1.1479558428        0.1010936372
 S         -2.8136082060       -0.4224175648       -0.4238337320
 O         -1.7984096281       -1.0140259298        0.4188228352
 O         -2.5518099226       -0.3918106375       -1.8402208670
 C         -4.3897931948       -1.2078737275       -0.1327676758
 C         -4.5995719283       -1.8811495158        1.0558739286
 C         -5.8385592902       -2.4564515727        1.2913055292
 C         -6.8426243528       -2.3460420156        0.3410733650
 C         -6.6170932818       -1.6679904424       -0.8477464935
 C         -5.3803662972       -1.0911288599       -1.0897140815
 H         -5.1538896505       -0.5622950325       -2.0009083622
 H         -7.3985972100       -1.5867760654       -1.5857730384
 H         -7.8058449648       -2.7941168132        0.5269198755
 H         -6.0149609306       -2.9871142802        2.2129831993
 H         -3.7859818798       -1.9477168316        1.7604635436
 H         -3.9861279162        1.1755165966        0.6825179059
 H         -3.2710776317        2.8452012918        2.1524759675
 H         -1.3790208997        4.1796646426        3.0057036674
 H          0.8557009988        3.9454785951        1.9972721241
 C          1.6008930627        2.3773528940       -0.0880937115
 H          2.3266561051        2.7890385082        0.6278795718
 C          1.6987820418        3.1695778756       -1.3760857791
 C          1.9493600613        4.6453483488       -1.3069048415
 C          3.0239060917        3.7247153203       -1.8004754151
 H          3.2665974985        3.7232296331       -2.8522721272
 H          3.8714517200        3.5383631700       -1.1569377838
 H          2.0731537941        5.0881701667       -0.3304836938
 H          1.4511686480        5.2833497774       -2.0203038347
 H          1.0399662304        2.8046015847       -2.1533229230
 O          2.8628979950        0.9702059626        1.9557658750
