  62
        -98.93661252
 C          1.1780571356        1.3245616209        0.2732756361
 C          1.9861698208        0.6598661591        1.2266653492
 C          2.7854079921       -0.4880874620        0.7562449410
 C          2.6670636332       -0.8712182198       -0.5283211013
 C          3.4195145048       -1.9556786132       -1.2531602504
 C          4.8678301936       -1.5569297898       -1.5802722225
 C          5.6241515862       -0.8786885064       -0.4413784114
 H          6.5942621480       -0.5593339841       -0.8313634213
 H          5.0862730037        0.0215328662       -0.1385337098
 C          5.8783334845       -1.7542515728        0.7833146234
 H          6.4415967607       -2.6398269797        0.4807372437
 H          6.5078860585       -1.1796200149        1.4677256230
 C          4.6335350114       -2.2058892743        1.5503767383
 H          4.9696017794       -2.5917237955        2.5172687047
 H          4.1375245431       -3.0302857470        1.0454463244
 C          3.6336718322       -1.0932584741        1.8486979188
 H          2.9247382458       -1.4544973990        2.6037341729
 H          4.1585376065       -0.2579367970        2.3265765242
 H          5.4080090882       -2.4512059353       -1.8957522822
 H          4.8451549500       -0.8622057928       -2.4235036694
 H          3.3937962609       -2.8783037158       -0.6809156198
 H          2.8931289424       -2.1273786484       -2.1944525107
 O          1.8179706754       -0.2492746630       -1.3922252650
 C          1.0459706198        0.8414554063       -1.0296733034
 O          0.3112237612        1.2627316231       -1.9398441000
 H         -1.2698030797        0.7138854332        1.7646654962
 C         -1.7763199143        1.3104220634        1.0152507545
 C         -1.0762060057        2.3278998236        0.3775503688
 C         -1.7314395669        3.0789585223       -0.5883724043
 C         -3.0506001239        2.8086383054       -0.9097928118
 C         -3.7454861004        1.7976994542       -0.2709963749
 C         -3.0993342944        1.0441660799        0.7004384175
 N         -3.8031665708        0.0109075352        1.3606479725
 S         -4.2389178105       -1.3085796004        0.4268546368
 O         -5.1242897244       -0.8677783112       -0.6192578433
 O         -4.7733755262       -2.2788460297        1.3552127633
 C         -2.7109467123       -1.9123581782       -0.2662338423
 C         -2.2102081538       -1.3232160415       -1.4095792216
 C         -1.0002405841       -1.7693528695       -1.9164006031
 C         -0.3138241700       -2.7847046010       -1.2690926350
 C         -0.8245896199       -3.3590136608       -0.1151774728
 C         -2.0342353488       -2.9179531538        0.3953139184
 H         -2.4734756777       -3.3428787469        1.2838325947
 H         -0.2838934365       -4.1459464578        0.3859134785
 H          0.6277145745       -3.1283891636       -1.6670708885
 H         -0.5902864382       -1.3051782679       -2.7990171158
 H         -2.7655824460       -0.5323513769       -1.8870392564
 H         -3.3273758702       -0.3214841015        2.1883454544
 H         -4.7676957609        1.5654596620       -0.5220032705
 H         -3.5448462636        3.3931688677       -1.6709809001
 H         -1.1990953955        3.8577159482       -1.1091394382
 C          0.3714613506        2.5214222551        0.7459373477
 H          0.4489556510        2.4815024829        1.8452156732
 C          0.9280454690        3.8728925422        0.3264855988
 C          2.4069857872        4.0830617990        0.2027596896
 C          1.5391556797        4.1276016725       -1.0172597862
 H          1.3624211351        5.0866137441       -1.4823485582
 H          1.5844078320        3.3074270584       -1.7155637108
 H          2.8303831150        5.0052559685        0.5713680231
 H          3.0444220589        3.2221446980        0.3441140632
 H          0.3615212355        4.6902258913        0.7628033552
 O          2.0482811780        1.0124321239        2.4364336803
