  62
        -98.93994662
 C          1.9730568528        0.8106543189       -0.2137298105
 C          2.8486030802        0.4748444327        0.8517718617
 C          3.3713574839       -0.8939300114        0.8652987493
 C          2.9766490168       -1.7622950617       -0.0829336332
 C          3.3922186255       -3.2046537337       -0.1917849533
 C          4.7339960631       -3.4154245895       -0.9069499763
 C          5.9695945064       -3.0015141705       -0.1064484822
 H          5.9371156792       -3.4712527608        0.8769711837
 H          6.8393258054       -3.4018060135       -0.6311294505
 C          6.1432780603       -1.4844431053        0.0507604877
 H          5.5210932750       -0.9690216921       -0.6846234767
 H          7.1799806265       -1.2127021975       -0.1602568850
 C          5.8088284173       -0.9488236716        1.4429847934
 H          5.9317187625        0.1370139544        1.4307405995
 H          6.5107112392       -1.3595374530        2.1720148755
 C          4.3808446504       -1.2572202545        1.9125056135
 H          4.2905503684       -2.3103800134        2.1777126865
 H          4.1716644238       -0.6524570747        2.7981542839
 H          4.8159787426       -4.4801177100       -1.1375823467
 H          4.7127555694       -2.8709748141       -1.8538979703
 H          3.4340798450       -3.6486408959        0.8033070695
 H          2.6108113410       -3.7088768632       -0.7647350628
 O          2.1147903677       -1.4154343640       -1.0738379361
 C          1.6029659825       -0.1265780787       -1.1800997691
 O          0.8594818229        0.0251156405       -2.1696087881
 O          3.1838257629        1.2934117661        1.7505032656
 C          1.4494484186        2.2339412679       -0.2207363678
 C          0.1391421924        2.3661406239        0.5221170113
 C         -0.1002950638        3.4774787211        1.3228458636
 C         -1.3107593231        3.6281748412        1.9742064713
 C         -2.3023725769        2.6743065561        1.8408816573
 C         -2.0678670811        1.5501131716        1.0551227653
 C         -0.8543614196        1.4060691715        0.3977104539
 H         -0.6933919256        0.5376468289       -0.2227552899
 N         -3.0426448552        0.5458109205        0.9598220330
 S         -3.0887130659       -0.4861199410       -0.3723589095
 O         -2.0809524908       -1.5028765277       -0.2039243272
 O         -3.0641058564        0.2773686709       -1.5990969842
 C         -4.7076305649       -1.1982901889       -0.1374461566
 C         -5.7848872783       -0.6677302057       -0.8218970648
 C         -7.0456470217       -1.2027115787       -0.6085005874
 C         -7.2079747930       -2.2520143591        0.2834685486
 C         -6.1174523843       -2.7755301171        0.9621501688
 C         -4.8541431900       -2.2456079716        0.7523162479
 H         -3.9759416988       -2.6242301983        1.2490357489
 H         -6.2464347153       -3.5933393543        1.6525993760
 H         -8.1898786494       -2.6664695726        0.4485251612
 H         -7.8941167794       -0.7999790191       -1.1377221200
 H         -5.6080477707        0.1413700657       -1.5121643716
 H         -3.9647033890        0.8572539796        1.2320605947
 H         -3.2479057735        2.7883896591        2.3482880610
 H         -1.4852885956        4.4968223968        2.5904416275
 H          0.6738119090        4.2208871263        1.4388910656
 H          2.1993399456        2.8203713788        0.3299182222
 C          1.2979605973        2.8326604497       -1.6063424536
 C          1.4637456396        4.3093823361       -1.7970251400
 C          2.5055545915        3.3649619268       -2.3153685001
 H          2.5853803684        3.2072670265       -3.3802637522
 H          3.4506427810        3.3125034513       -1.7944078167
 H          0.8228111551        4.8084266419       -2.5073268850
 H          1.7110712931        4.9049330607       -0.9317412673
 H          0.5515179593        2.3269574736       -2.2064613727
