  62
        -98.94871112
 C         -1.4967201784       -1.3704360464       -0.3524270257
 C         -0.3845364709       -1.6674379803       -1.1743951917
 C          0.5871646733       -2.6151706913       -0.6196477720
 C          0.4102037964       -3.0995987261        0.6229128657
 C          1.2919174408       -4.1031183740        1.3162018007
 C          2.5336593970       -3.4928518154        1.9791579071
 C          3.6383456611       -3.0627244343        1.0138900445
 H          4.5342171865       -2.8857063811        1.6126769696
 H          3.8607538348       -3.8802127382        0.3269402067
 C          3.3211869180       -1.7879603437        0.2197712135
 H          2.5148145519       -1.2387337125        0.7141139079
 H          4.2001541043       -1.1378136489        0.2283201700
 C          2.9483348286       -2.0209716463       -1.2448462714
 H          3.8150192599       -2.4108543828       -1.7840141713
 H          2.6783065251       -1.0574567388       -1.6845243655
 C          1.7737457418       -2.9826996364       -1.4592945952
 H          2.0826863438       -4.0064808281       -1.2478654330
 H          1.4684831091       -2.9172635254       -2.5067563081
 H          2.9438979790       -4.2440294910        2.6585418905
 H          2.2231708168       -2.6332656680        2.5787226305
 H          0.6799170288       -4.5674048980        2.0926393246
 H          1.5978879257       -4.8739221098        0.6076150774
 O         -0.6431011093       -2.7444389609        1.4050709233
 C         -1.6105794380       -1.8629448397        0.9472804625
 O         -2.5111304796       -1.6168837339        1.7735124570
 O         -0.2201149123       -1.1748558556       -2.3236950700
 C         -2.5595563636       -0.4134152792       -0.8640964738
 C         -2.5917725152        0.8041154526        0.0250356263
 C         -3.7471346049        1.3279850606        0.5880973923
 C         -3.6739242448        2.4152587873        1.4425660321
 C         -2.4579481451        2.9930726219        1.7562146661
 C         -1.2971767500        2.4868066845        1.1799324896
 C         -1.3769505641        1.4188932429        0.3031408596
 H         -0.4748272556        1.0190118570       -0.1367219587
 N         -0.0496601454        3.0683339267        1.4441600106
 S          1.3771878533        2.2235552806        1.2692703128
 O          1.2458867065        0.8293477005        1.6280878944
 O          2.3391890654        2.9773175576        2.0475443615
 C          1.8041021527        2.3849203789       -0.4540672481
 C          2.9396826527        1.7218642021       -0.8752778969
 C          3.3356627178        1.8304792237       -2.1983953059
 C          2.5920402173        2.6024370496       -3.0771545346
 C          1.4591502366        3.2686177194       -2.6381740915
 C          1.0589278395        3.1648828693       -1.3146202194
 H          0.1782363113        3.6697875795       -0.9540832894
 H          0.8811674399        3.8685021989       -3.3227344338
 H          2.8968898298        2.6832402191       -4.1085312152
 H          4.2178205733        1.3111243866       -2.5374076060
 H          3.4864666721        1.1306542795       -0.1584988637
 H         -0.0206595254        3.7381957088        2.1972063344
 H         -2.4011555441        3.8242867838        2.4421441860
 H         -4.5771466130        2.8084436981        1.8839713348
 H         -4.7017009737        0.8762232890        0.3746179023
 H         -2.2183965790       -0.1048305657       -1.8634662577
 C         -3.8960261067       -1.1115716893       -0.9947408918
 C         -4.9034195228       -0.6287007209       -1.9941074717
 C         -4.1761329251       -1.9178810290       -2.2262456678
 H         -4.7189063973       -2.8453091639       -2.1219008256
 H         -3.4084551499       -1.9450864168       -2.9856636693
 H         -5.9500637161       -0.6720952705       -1.7334479866
 H         -4.6342443594        0.2205949886       -2.6033040011
 H         -4.2551486874       -1.5017405124       -0.0489896306
