  62
        -98.93917683
 C         -2.2084366985       -0.1904184899        0.3280182789
 C         -3.2483517698       -0.6866567950       -0.4964401705
 C         -4.3335233342        0.2586572469       -0.7945691724
 C         -4.2830216037        1.5165339207       -0.3228072202
 C         -5.2965777322        2.6006447123       -0.5704639573
 C         -6.5024706189        2.5571140554        0.3781477551
 C         -7.4903970864        1.4181522882        0.1227357607
 H         -8.3859935935        1.6340565189        0.7087281574
 H         -7.7806549883        1.4197073208       -0.9283121030
 C         -6.9687009153        0.0282038631        0.5129794903
 H         -6.1077678947        0.1353559329        1.1769714941
 H         -7.7395843439       -0.5058017178        1.0731618896
 C         -6.5737992901       -0.8562118723       -0.6696808916
 H         -7.4578412770       -1.0803487365       -1.2706645658
 H         -6.1847978863       -1.7989805712       -0.2770209359
 C         -5.5034438443       -0.2467614554       -1.5843941272
 H         -5.1386128954       -1.0290095860       -2.2541573774
 H         -5.9326612197        0.5557394676       -2.1835697959
 H         -6.1360272517        2.4987218003        1.4057085630
 H         -7.0362993672        3.5040313489        0.2693344993
 H         -4.7766598500        3.5498042234       -0.4236028009
 H         -5.6424329326        2.5497642193       -1.6032369160
 O         -3.2548109827        1.9644266998        0.4467473263
 C         -2.2151489516        1.1244442961        0.8045511837
 O         -1.3649482216        1.6593142500        1.5463753154
 H          1.4111383605        0.1512015427        0.6695837413
 C          1.2207589900       -0.4415627151       -0.2139416462
 C          0.0125657383       -1.1092523638       -0.3544739961
 C         -0.2168327236       -1.8435174036       -1.5137412495
 C          0.7507335541       -1.9128527491       -2.4989489183
 C          1.9660200899       -1.2700608604       -2.3432107856
 C          2.1989056239       -0.5216141230       -1.1952479110
 N          3.4098602456        0.1678189824       -1.0236726841
 S          4.0412544520        0.3163825567        0.5341282620
 O          3.9024194685       -0.9344782928        1.2458777450
 O          3.4655471727        1.4779536826        1.1642291746
 C          5.7570383113        0.6245541976        0.1582261190
 C          6.6496409483       -0.4307790985        0.1553223777
 C          7.9754048302       -0.1863285191       -0.1668794490
 C          8.3831283508        1.1012407426       -0.4817878925
 C          7.4758479620        2.1504496533       -0.4736871759
 C          6.1490289595        1.9132803940       -0.1514045659
 H          5.4099076989        2.6970728518       -0.1219380169
 H          7.7969580274        3.1507180509       -0.7157844740
 H          9.4152078516        1.2891365792       -0.7321731362
 H          8.6837526582       -0.9989862566       -0.1706234357
 H          6.2888809081       -1.4129217077        0.4154673915
 H          4.1165769775       -0.1012030376       -1.6945072992
 H          2.7252396364       -1.3372981593       -3.1076636824
 H          0.5608920880       -2.4849007821       -3.3946408481
 H         -1.1649963499       -2.3421295200       -1.6399659275
 C         -1.0128247661       -1.0291963592        0.7519152262
 H         -0.5497158952       -0.4835475885        1.5861360511
 C         -1.3939887995       -2.4131549107        1.2417883899
 C         -0.3977573214       -3.1864762946        2.0502529203
 C         -1.6284113694       -2.6343826089        2.7039984233
 H         -2.4061903567       -3.3209509715        3.0031492441
 H         -1.5181573932       -1.7847537626        3.3628850632
 H         -0.3298596259       -4.2531632803        1.9011441956
 H          0.5495689396       -2.7112882603        2.2617503809
 H         -2.0179866424       -2.9614945946        0.5490037627
 O         -3.2939215355       -1.8513408182       -0.9717505173
