  62
        -98.94497538
 C         -2.0632592631       -1.3409474125        0.0242999308
 C         -2.6461287721       -0.6730444578        1.1274237205
 C         -3.8133158549        0.1628544896        0.8266705619
 C         -4.2623990061        0.2511248399       -0.4388081207
 C         -5.4527785010        1.0469954007       -0.9011487012
 C         -5.1466553896        2.5265830273       -1.1715218287
 C         -4.9151048068        3.3816428508        0.0750533089
 H         -4.9262297276        4.4252799450       -0.2455194553
 H         -5.7461047282        3.2450839304        0.7677531888
 C         -3.5895361887        3.1022323268        0.7972751089
 H         -2.9184352237        2.5590674117        0.1270663141
 H         -3.1000389184        4.0484695737        1.0398700702
 C         -3.7328657900        2.3173244614        2.1015489801
 H         -4.2954455190        2.9108712694        2.8254635329
 H         -2.7337826378        2.1472918588        2.5114514666
 C         -4.4202446991        0.9541973398        1.9459694355
 H         -4.2750680945        0.3898194514        2.8703400742
 H         -5.4890122097        1.0888665278        1.7822266321
 H         -4.2723734465        2.5890764763       -1.8239421349
 H         -5.9976065555        2.9411921809       -1.7167732610
 H         -5.7883971331        0.5897384270       -1.8343721844
 H         -6.2550203005        0.9681616479       -0.1670113861
 O         -3.6741646051       -0.4069950503       -1.4723474878
 C         -2.5479576025       -1.1949399677       -1.2758199324
 O         -2.0901174515       -1.7014315427       -2.3167256394
 H         -0.0076204581        0.3066647003        0.4094943210
 C          0.6264176381       -0.2636090747       -0.2582988177
 C          0.3475700058       -1.6095971606       -0.4673517683
 C          1.1787147206       -2.3333374202       -1.3111198899
 C          2.2373630322       -1.7127656942       -1.9532997040
 C          2.4966640158       -0.3688385987       -1.7616502983
 C          1.6842295889        0.3599079557       -0.9008540159
 N          1.9479238721        1.7218759467       -0.6823223207
 S          3.5370135157        2.1984470661       -0.4691570913
 O          3.4659918372        3.3978841985        0.3356579548
 O          4.1780469890        2.3407663591       -1.7527489029
 C          4.3085381749        0.8751213231        0.4460407361
 C          3.7796510267        0.5393527971        1.6766836266
 C          4.3485530458       -0.5040989265        2.3883120330
 C          5.4316689156       -1.1903297938        1.8602949392
 C          5.9548353368       -0.8372247796        0.6263280311
 C          5.3882213626        0.2043184607       -0.0909998941
 H          5.7604837431        0.5098066712       -1.0552763392
 H          6.7984231345       -1.3708924493        0.2193043412
 H          5.8695209431       -2.0044502078        2.4158909296
 H          3.9421552181       -0.7795033073        3.3483451288
 H          2.9393940317        1.0942303349        2.0629882723
 H          1.3360448606        2.1593313368       -0.0099586010
 H          3.3036776697        0.1312977381       -2.2719061187
 H          2.8672853172       -2.2842558679       -2.6175221801
 H          0.9914517401       -3.3809827915       -1.4775069828
 C         -0.8360319737       -2.2043016236        0.2561742768
 H         -0.6389737639       -2.1417363085        1.3368579419
 C         -1.1143567747       -3.6474488047       -0.1041455246
 C         -0.3506281999       -4.7498434055        0.5649210919
 C         -1.7932901703       -4.5263150836        0.9019055470
 H         -2.5239686000       -5.2402399201        0.5524381900
 H         -2.0352782791       -4.0897339953        1.8600099143
 H         -0.0907350647       -5.6225687038       -0.0147336698
 H          0.3896346506       -4.4704270641        1.2990052240
 H         -1.3927663471       -3.7717801783       -1.1443560686
 O         -2.2075774736       -0.7662384453        2.3060506010
