  62
        -98.93969900
 C         -2.2787223603       -0.8976757525        0.6415844834
 C         -3.4200976149       -0.8971922823       -0.1979299710
 C         -4.4310932951        0.1276517880        0.0974865095
 C         -4.2423390497        0.9923124207        1.1093753855
 C         -5.1910480611        2.0782815607        1.5393214267
 C         -5.0666615369        3.3754407187        0.7282628438
 C         -5.6140760803        3.3067794197       -0.6980176184
 H         -6.6321869091        2.9169855943       -0.6764588167
 H         -5.6651046785        4.3317661723       -1.0705998648
 C         -4.7611994753        2.4725401279       -1.6640605153
 H         -3.7654464835        2.3262460179       -1.2383031725
 H         -4.6303256863        3.0201618580       -2.6001148406
 C         -5.3541361004        1.1082615206       -2.0158709983
 H         -4.6509685872        0.5883064266       -2.6711044175
 H         -6.2888157635        1.2452496415       -2.5640612778
 C         -5.6264495674        0.2078223060       -0.8041829415
 H         -6.4938548484        0.5697262247       -0.2530005712
 H         -5.8363117570       -0.8010576230       -1.1672810083
 H         -5.6153504692        4.1504177366        1.2685350351
 H         -4.0149020931        3.6704157899        0.7017032958
 H         -6.2162472739        1.7107749864        1.4854390727
 H         -4.9551841247        2.3003674493        2.5823105396
 O         -3.1343978890        0.9584525119        1.8981211886
 C         -2.1334066766        0.0280560089        1.6798689635
 O         -1.1782542442        0.1153826900        2.4799777383
 O         -3.6149137232       -1.7014184195       -1.1465963733
 C         -1.1315306170       -1.8843367319        0.4883684498
 C         -0.1916153140       -1.4631811379       -0.6165844114
 C         -0.5952520308       -1.4375050173       -1.9476417969
 C          0.2888377606       -1.0485505688       -2.9369100849
 C          1.5853442542       -0.6821769591       -2.6221595740
 C          2.0011392733       -0.7112920359       -1.2958131348
 C          1.1107796138       -1.0995737273       -0.3044009854
 H          1.4368931663       -1.0979340713        0.7251513632
 N          3.3295067812       -0.3924770292       -0.9625730234
 S          3.6605727831        0.3829058609        0.4994261649
 O          3.5840805051       -0.5829655178        1.5661839793
 O          2.8416633750        1.5675796087        0.6330581100
 C          5.3650702954        0.8311384916        0.2262380794
 C          6.3278192011       -0.1545030746        0.3384451864
 C          7.6530578067        0.1732045164        0.1013394426
 C          7.9923649433        1.4737162514       -0.2419712829
 C          7.0158523486        2.4524060897       -0.3484665670
 C          5.6878304351        2.1308307119       -0.1141020296
 H          4.8955877733        2.8594623548       -0.1778208582
 H          7.2827295097        3.4631023185       -0.6122135611
 H          9.0247476964        1.7266392988       -0.4248919339
 H          8.4152193572       -0.5844862692        0.1858837688
 H          6.0173522958       -1.1479978981        0.6167360844
 H          3.8212957311        0.0544493474       -1.7251098793
 H          2.2730729054       -0.3787636536       -3.3970504974
 H         -0.0366641291       -1.0263241129       -3.9660796078
 H         -1.6101251169       -1.7083981128       -2.1939248830
 H         -0.5710014492       -1.8321566183        1.4323658132
 C         -1.5945490953       -3.3148568535        0.2874759647
 C         -0.6442316967       -4.4294280940        0.6002343635
 C         -1.8287512839       -4.1828037218        1.4849536824
 H         -2.6488580127       -4.8844570707        1.4597811620
 H         -1.6562498007       -3.7471495427        2.4589224932
 H         -0.6486439698       -5.3031710378       -0.0329533474
 H          0.3326221704       -4.1609468401        0.9749501674
 H         -2.2612661026       -3.4387602431       -0.5550446358
