  62
        -98.94516359
 C         -1.0464358654       -1.3086326844        0.4661638670
 C         -1.5450525457       -0.7049255266       -0.7161217600
 C         -2.3592053070        0.5052491491       -0.5189419135
 C         -2.5919150497        0.9734017461        0.7193897358
 C         -3.3760316733        2.2083418678        1.0717001402
 C         -4.8951385682        1.9930271550        1.1166636535
 C         -5.5714285842        1.8201046328       -0.2440067612
 H         -6.6475674269        1.9033435692       -0.0794826001
 H         -5.2784825112        2.6394374778       -0.9013465285
 C         -5.2809954960        0.4785121469       -0.9314502563
 H         -4.8913226187       -0.2307241284       -0.1977082815
 H         -6.2117446721        0.0589066398       -1.3196889418
 C         -4.3011648316        0.5649068389       -2.1021088525
 H         -4.7380742432        1.1638516686       -2.9044446458
 H         -4.1347252699       -0.4441004657       -2.4879598416
 C         -2.9366397167        1.1618583491       -1.7357564227
 H         -2.2442645911        0.9892636267       -2.5645881864
 H         -3.0245265283        2.2377230691       -1.5813137268
 H         -5.1059763018        1.1215836849        1.7406366916
 H         -5.3324792382        2.8663620466        1.6059304170
 H         -3.0441174868        2.5154836578        2.0658153250
 H         -3.1394016349        3.0055831074        0.3660218484
 O         -2.1025818353        0.3620456873        1.8305282117
 C         -1.3290295660       -0.7835619854        1.7305651127
 O         -0.9559156207       -1.2385682525        2.8299875450
 H          0.9786542600       -0.7213102574       -1.2356046853
 C          1.7042535493       -1.1990985568       -0.5969272622
 C          1.3064510010       -2.1535542981        0.3277117668
 C          2.2768335636       -2.7658139121        1.1134008676
 C          3.6114870448       -2.4322545186        0.9741399551
 C          4.0015681255       -1.4638978905        0.0666041793
 C          3.0395997851       -0.8417625970       -0.7199007735
 N          3.3985187961        0.1632823866       -1.6363074339
 S          2.5358774364        1.5985068517       -1.6055754866
 O          1.2605290879        1.4442252625       -2.2530560231
 O          3.4346310031        2.5669244835       -2.1979479887
 C          2.3259222334        1.9474492178        0.1307175811
 C          1.1069536636        1.7197420652        0.7345413665
 C          0.9853290149        1.9302576355        2.0991573378
 C          2.0803243627        2.3622582056        2.8309138089
 C          3.2972574713        2.5955125061        2.2079005161
 C          3.4253017627        2.3820625890        0.8455556210
 H          4.3506144434        2.5605606936        0.3221893447
 H          4.1439072335        2.9372039837        2.7810744772
 H          1.9796550939        2.5181190447        3.8933506190
 H          0.0410488255        1.7382105695        2.5844562544
 H          0.2756171154        1.3824424830        0.1342075024
 H          4.3905132316        0.3521821830       -1.6715849581
 H          5.0405622254       -1.1902301505       -0.0348915822
 H          4.3539516288       -2.9188636193        1.5876085397
 H          1.9765748480       -3.5013107623        1.8444316074
 C         -0.1491825879       -2.5342323477        0.4757764712
 H         -0.2721321352       -2.9872220490        1.4696017725
 C         -0.5154408890       -3.5725994486       -0.5678584249
 C         -0.1890912935       -5.0128458143       -0.3174842039
 C         -1.6138842435       -4.5492584745       -0.2797681154
 H         -2.2753349497       -4.8306102764       -1.0852643427
 H         -2.1025598224       -4.4808003943        0.6815949050
 H          0.2822791017       -5.2679316422        0.6192704081
 H          0.1330377191       -5.6177792511       -1.1510092841
 H         -0.4310110663       -3.2046047089       -1.5820607779
 O         -1.3344290999       -1.1255968961       -1.8836395913
