  62
        -98.94128371
 C          0.0315782994       -2.1217509870       -0.0705468127
 C          0.9509266699       -1.6847358249       -1.0529787623
 C          2.3102982233       -1.3276873610       -0.6031338179
 C          2.6109637626       -1.4588817896        0.7021714968
 C          3.8892339586       -1.0946159291        1.4096764644
 C          4.0275139390        0.4211347132        1.6150754836
 C          3.7449200834        1.2641569120        0.3746909543
 H          2.7105952267        1.1007661835        0.0673222782
 H          3.8214130969        2.3149201337        0.6682005503
 C          4.6834926538        1.0327714635       -0.8078424786
 H          5.7121696082        1.2073874985       -0.4853539968
 H          4.4389435925        1.7856155056       -1.5613479489
 C          4.6047130754       -0.3445956717       -1.4728758328
 H          5.1636718730       -1.0888531506       -0.9118176641
 H          5.0923280650       -0.2616843741       -2.4484062139
 C          3.1867228143       -0.8408933205       -1.7324777177
 H          2.6219973434       -0.0521178674       -2.2417734050
 H          3.2312182769       -1.6726075758       -2.4457997475
 H          3.3124947331        0.7260849634        2.3845348156
 H          5.0344758678        0.6289325088        1.9824598515
 H          3.8513890388       -1.5746092854        2.3903857152
 H          4.7480085958       -1.4922916610        0.8770384557
 O          1.7111140181       -1.9364736468        1.6075215811
 C          0.4047106590       -2.2447050990        1.2690877718
 O         -0.2926211391       -2.6175053251        2.2324020486
 O          0.6466723648       -1.5761569434       -2.2731324891
 C         -1.3926917810       -2.3787508635       -0.5159502164
 C         -2.3115589008       -1.2111930384       -0.2196955428
 C         -3.5687470341       -1.1409661434       -0.8146232717
 C         -4.4012900053       -0.0633445169       -0.5776331775
 C         -3.9914984268        0.9839422289        0.2302974914
 C         -2.7407015661        0.9240682530        0.8303446288
 C         -1.9247524117       -0.1787380565        0.6180345087
 H         -0.9741389025       -0.2149225316        1.1249264461
 N         -2.2703107683        1.9668535596        1.6458904749
 S         -0.6986901941        2.5136678086        1.4520189437
 O          0.2450892172        1.5416866545        1.9395985151
 O         -0.6877104342        3.8002778077        2.1145900966
 C         -0.5297138988        2.7379253460       -0.3078306744
 C         -0.9922045211        3.9125275622       -0.8698118989
 C         -0.9440899125        4.0618742357       -2.2460935522
 C         -0.4549661997        3.0323177334       -3.0370179896
 C          0.0033970553        1.8590836817       -2.4589101053
 C         -0.0286310572        1.7119261287       -1.0814760422
 H          0.3263065652        0.8099622515       -0.6088015911
 H          0.3718885761        1.0414255157       -3.0595787514
 H         -0.4290180729        3.1429996627       -4.1095514281
 H         -1.2943920343        4.9753943993       -2.6989537455
 H         -1.3635728038        4.6872200639       -0.2186671548
 H         -2.9076588514        2.7445461983        1.7400537256
 H         -4.6320697229        1.8360312310        0.3978836019
 H         -5.3746007837       -0.0260240846       -1.0420526373
 H         -3.8898640010       -1.9374715480       -1.4670500451
 H         -1.3385971648       -2.4770903638       -1.6106208211
 C         -1.9668384552       -3.6636118092        0.0525716559
 C         -2.8474268022       -4.5395815799       -0.7854326897
 C         -1.4549157730       -4.9793310082       -0.4504081422
 H         -1.3136142785       -5.7803461196        0.2592218003
 H         -0.7104668759       -4.9549115794       -1.2331727357
 H         -3.6744484920       -5.0422024432       -0.3079757471
 H         -3.0398792859       -4.2397186505       -1.8044356227
 H         -2.1827205808       -3.5944537957        1.1117842433
