  62
        -98.93813834
 C          1.4356583489        1.6627740305       -0.1787369622
 C          1.3651938396        0.3218149986        0.2690518787
 C          2.6511118787       -0.3283412910        0.5996052284
 C          3.7963696621        0.3697155686        0.4994913213
 C          5.2315764309       -0.0113630062        0.7993274702
 C          5.6184602030       -1.4679750817        1.0402518788
 C          5.5241542923       -2.3654963372       -0.1937058950
 H          6.3199119933       -2.0834815166       -0.8879419884
 H          5.7059043888       -3.3963996966        0.1175908704
 C          4.2039807965       -2.3007634435       -0.9576021660
 H          4.0532818576       -1.2901867111       -1.3425809116
 H          4.2864260332       -2.9645651259       -1.8226422698
 C          2.9679280265       -2.7207123298       -0.1650285683
 H          3.1191899081       -3.7216533060        0.2436326925
 H          2.1291159890       -2.7637908872       -0.8642021479
 C          2.5640310584       -1.7783162122        0.9807333125
 H          3.1440022793       -1.9762445438        1.8786385691
 H          1.5122450803       -1.9645227022        1.2176280845
 H          5.0374957033       -1.8799346840        1.8600064214
 H          6.6627030476       -1.4630425226        1.3645822255
 H          5.8256950687        0.3843809980       -0.0308583237
 H          5.5133467279        0.5729260426        1.6823337921
 O          3.8059216422        1.6813468082        0.1148187614
 C          2.6474033624        2.3529114534       -0.2302267574
 O          2.8249659909        3.5450995476       -0.5523117160
 O          0.2924390277       -0.3186554001        0.4001237213
 C          0.1908383723        2.4415299778       -0.5681730730
 C         -0.9003749212        2.1978468218        0.4435675132
 C         -0.7255940533        2.6710486313        1.7414269440
 C         -1.6844445560        2.4460824356        2.7098596444
 C         -2.8336898997        1.7378228177        2.4061079669
 C         -3.0177415476        1.2635137953        1.1127751829
 C         -2.0596533152        1.5036220521        0.1379803375
 H         -2.2228401267        1.1191125287       -0.8540933965
 N         -4.1793116178        0.5564208719        0.7769400072
 S         -4.1963951831       -0.6057944683       -0.4169632376
 O         -4.1199302376        0.0153172440       -1.7166309041
 O         -5.4134107665       -1.3481813130       -0.1550270081
 C         -2.7991401359       -1.6819923045       -0.1571375846
 C         -2.5752993253       -2.1923518437        1.1047882310
 C         -1.5335485981       -3.0848395996        1.2899486746
 C         -0.7419630024       -3.4566400522        0.2153231451
 C         -0.9796831783       -2.9341717899       -1.0447986366
 C         -2.0170295575       -2.0371320735       -1.2347648616
 H         -2.2295191341       -1.6011127166       -2.1979346859
 H         -0.3582012395       -3.2166946321       -1.8804807573
 H          0.0696212552       -4.1524752251        0.3620089960
 H         -1.3378234909       -3.4846808015        2.2723160054
 H         -3.2087559297       -1.8914953242        1.9236423581
 H         -4.7810124055        0.3165460361        1.5502212493
 H         -3.5811286296        1.5526964898        3.1624593079
 H         -1.5341404299        2.8175325113        3.7124503013
 H          0.1811190132        3.2100662718        1.9821798752
 H          0.4839880708        3.5025800652       -0.5034045354
 C         -0.2637445391        2.2015552908       -2.0000094171
 C          0.7304043292        1.9417799595       -3.0910223000
 C         -0.1982736997        0.8530645559       -2.6485476142
 H         -1.0071272011        0.5680382468       -3.3062715160
 H          0.2008414746        0.0370806911       -2.0670559437
 H          0.5675974848        2.4014814921       -4.0542895640
 H          1.7716315695        1.8733637410       -2.8106743118
 H         -1.1139963769        2.8241370053       -2.2637038423
