  62
        -98.94353442
 C          1.8284430844        0.8722637545       -0.6867509987
 C          2.0630256391        0.0840827532        0.4658816952
 C          3.4671021953       -0.0277404848        0.8815605447
 C          4.4238435061        0.6208942756        0.1930068521
 C          5.8949137758        0.6246632900        0.5099073165
 C          6.6570572045       -0.5853807419       -0.0475602278
 C          6.3921013920       -1.9087362866        0.6714802332
 H          7.1471703382       -2.6174347426        0.3253807142
 H          6.5398664686       -1.7740197981        1.7434472783
 C          5.0009096361       -2.5032672111        0.4116057944
 H          4.5627163072       -2.0319105226       -0.4710906341
 H          5.0963721555       -3.5688478040        0.1911516019
 C          4.0247856407       -2.3678469366        1.5803029225
 H          4.3891895603       -2.9478553394        2.4310682290
 H          3.0630473199       -2.7861776581        1.2734896009
 C          3.7868661354       -0.9235377455        2.0400382774
 H          2.9254989471       -0.9141225268        2.7123454513
 H          4.6572373914       -0.5522141092        2.5806387425
 H          6.4157769639       -0.6917257580       -1.1077164440
 H          7.7236704047       -0.3617955802        0.0292528183
 H          6.3075725509        1.5292482584        0.0578787662
 H          6.0374046321        0.6801792273        1.5895268775
 O          4.1511513248        1.3911487095       -0.8946844871
 C          2.8556637410        1.5230707955       -1.3686882517
 O          2.7490790723        2.2440870885       -2.3822287211
 H         -2.0993265837        0.2613871815       -0.3834252011
 C         -1.7218404452        1.1117557876        0.1579763721
 C         -0.4710719867        1.6278095581       -0.1398766341
 C         -0.0231823060        2.7409666560        0.5673102609
 C         -0.8007233606        3.3073264532        1.5579407199
 C         -2.0463843758        2.7838740983        1.8579692249
 C         -2.5079892954        1.6804332181        1.1516268001
 N         -3.7508765343        1.1102619780        1.4532046632
 S         -4.6885042181        0.3905171505        0.2758917679
 O         -4.6202254929        1.1063812375       -0.9769196467
 O         -6.0035650050        0.2927263374        0.8734641044
 C         -4.0166263567       -1.2474375060        0.0843254255
 C         -3.5042921280       -1.9048606094        1.1848428947
 C         -3.0109577104       -3.1899160756        1.0256622927
 C         -3.0451601044       -3.7961945086       -0.2207594518
 C         -3.5704865444       -3.1258262015       -1.3144834216
 C         -4.0619018071       -1.8387850764       -1.1628869384
 H         -4.4685347730       -1.2759104650       -1.9883319467
 H         -3.5962286198       -3.5990782192       -2.2833641154
 H         -2.6580492211       -4.7958010351       -0.3410777266
 H         -2.5970505420       -3.7120637402        1.8732731634
 H         -3.4838893068       -1.4043644986        2.1384044335
 H         -4.3009195733        1.5991069201        2.1433145132
 H         -2.6532973465        3.2231749784        2.6349653987
 H         -0.4366864525        4.1665841139        2.1011748013
 H          0.9495231937        3.1521570863        0.3322531137
 C          0.4132701345        1.0353401638       -1.2100424719
 H          0.4732853882        1.7571339566       -2.0382291297
 C         -0.0930266835       -0.2863657295       -1.7500344460
 C         -1.1133011600       -0.3163921416       -2.8466538536
 C          0.3057628325       -0.7038730169       -3.1323189835
 H          0.5298668096       -1.7442950745       -3.3128857876
 H          0.9214849528       -0.0194489467       -3.6980888698
 H         -1.8627147767       -1.0931365857       -2.8287622065
 H         -1.4718931577        0.6297068993       -3.2238043724
 H         -0.1396622542       -1.0560770483       -0.9878041818
 O          1.1528036885       -0.4921664989        1.1149006781
