  62
        -98.94002594
 C         -2.5590251316       -1.1746918468        0.3190358976
 C         -2.6057936983       -0.3788229965       -0.8524434761
 C         -3.5593046604        0.7425916382       -0.8266296010
 C         -4.3007565175        0.9596517823        0.2739435014
 C         -5.2708776282        2.0913391570        0.4483985496
 C         -4.5912830478        3.3139529112        1.0808098864
 C         -3.2764555597        3.7073550780        0.4070711011
 H         -2.9039165305        4.5984179585        0.9172874742
 H         -2.5413863210        2.9149878053        0.5686424459
 C         -3.3930649241        3.9899636487       -1.0973499823
 H         -2.8372383413        4.9017746080       -1.3254612275
 H         -4.4358578787        4.1722101235       -1.3594232708
 C         -2.8295758569        2.8878989788       -1.9966198772
 H         -1.8156090748        2.6342315889       -1.6763053680
 H         -2.7617606561        3.2819069852       -3.0139968407
 C         -3.6511792106        1.5942335385       -2.0615002739
 H         -4.6922317890        1.8298277314       -2.2912746658
 H         -3.2468119628        0.9861049042       -2.8758771366
 H         -5.2870931831        4.1539900632        1.0427330238
 H         -4.3849693147        3.0913796593        2.1304837716
 H         -5.6898739388        2.3558125251       -0.5204590305
 H         -6.0765466550        1.7555911792        1.1035483543
 O         -4.2086313319        0.1907679316        1.3899427315
 C         -3.3257781268       -0.8754438314        1.4474687107
 O         -3.3100103625       -1.4668563401        2.5463161807
 H         -0.1451595110       -0.3214591287        1.2902429030
 C          0.3801919243       -0.8710798837        0.5166432275
 C         -0.2393480431       -1.9711665739       -0.0657305984
 C          0.4463112004       -2.6692980942       -1.0500500674
 C          1.7109278579       -2.2659671562       -1.4429623508
 C          2.3175126467       -1.1650988012       -0.8680445639
 C          1.6417785822       -0.4596751165        0.1193128184
 N          2.2530076970        0.6686826064        0.7036361063
 S          3.7239890064        0.4087136104        1.4779142945
 O          3.8077872533       -0.9328786058        2.0090736716
 O          3.8454137347        1.4864786333        2.4357875547
 C          4.9343234386        0.6323209700        0.1922829834
 C          4.9666259886        1.8443711443       -0.4692187032
 C          5.9069812374        2.0352251119       -1.4689813862
 C          6.7954311062        1.0182213634       -1.7859329094
 C          6.7522957154       -0.1913424425       -1.1095226666
 C          5.8131866096       -0.3895001283       -0.1092408887
 H          5.7369823061       -1.3145458554        0.4394233471
 H          7.4439876769       -0.9803843283       -1.3572055003
 H          7.5258152502        1.1695311416       -2.5649967042
 H          5.9437047715        2.9743277858       -1.9972522612
 H          4.2610294534        2.6089005464       -0.1896346348
 H          1.6354721439        1.1847494471        1.3141944858
 H          3.2980276642       -0.8432262711       -1.1789223225
 H          2.2289142048       -2.8145621042       -2.2147305608
 H         -0.0165806950       -3.5179083821       -1.5257731810
 C         -1.6094904349       -2.3540706865        0.4400054288
 H         -1.5198637415       -2.5347971043        1.5249621797
 C         -2.1386515170       -3.6453702052       -0.1667111184
 C         -3.6114809340       -3.8954995569       -0.2898533055
 C         -2.7808223941       -3.6918022086       -1.5193355875
 H         -2.5845308144       -4.5466677043       -2.1498570279
 H         -2.8744915027       -2.7627216460       -2.0581890590
 H         -4.2818411359       -3.1047018050        0.0149674652
 H         -3.9812368911       -4.8865749450       -0.0733310351
 H         -1.5323212506       -4.5005807296        0.1160092357
 O         -1.8967795085       -0.5813227737       -1.8704207822
