  62
        -98.94635619
 C         -1.7957511090       -0.7249657151        0.2471609790
 C         -3.0980521630       -1.0035325069        0.7262988578
 C         -4.0325611672        0.1273615040        0.7269374452
 C         -3.6153411801        1.3384154789        0.3145041582
 C         -4.4435787522        2.5941454117        0.2804246084
 C         -5.3100794840        2.7360148709       -0.9784765684
 C         -6.5199014168        1.8030614425       -1.0445044179
 H         -7.0973117028        1.8923689355       -0.1237773036
 H         -7.1527096863        2.1565493929       -1.8610377566
 C         -6.1705786072        0.3292142434       -1.2943706713
 H         -6.8303480453       -0.0759879081       -2.0649566255
 H         -5.1500600813        0.2558373313       -1.6775462901
 C         -6.3034019233       -0.5710039357       -0.0659337738
 H         -5.9961506635       -1.5815666536       -0.3472759552
 H         -7.3490946650       -0.6124178143        0.2469566194
 C         -5.4517444459       -0.1330258363        1.1328059594
 H         -5.8844885555        0.7521923902        1.5982876879
 H         -5.4447733494       -0.9457461836        1.8633538667
 H         -5.6713939325        3.7664768720       -1.0108038592
 H         -4.6796298075        2.5773922218       -1.8564679135
 H         -5.0773460351        2.6397669297        1.1664650338
 H         -3.7418024034        3.4302613905        0.3107659521
 O         -2.3456933152        1.5707186909       -0.1131930792
 C         -1.4125466462        0.5458909002       -0.1790309003
 O         -0.3000506175        0.8931634025       -0.6172761266
 H          1.8842581927       -1.9038273051       -0.5839106836
 C          1.7310216087       -1.5782451671        0.4307979488
 C          0.4557245114       -1.4899973826        0.9651292151
 C          0.3141382045       -1.0659633964        2.2849957280
 C          1.4178451007       -0.7245485246        3.0410367780
 C          2.6888037158       -0.7916210247        2.4955633682
 C          2.8425905469       -1.2213557733        1.1841643506
 N          4.1228515863       -1.3298376997        0.6087946621
 S          4.4700135054       -0.5281760256       -0.8196844271
 O          3.5925938717       -0.9829581707       -1.8658765339
 O          5.8838982871       -0.7536858461       -1.0287777427
 C          4.1956381475        1.1956101507       -0.4516130316
 C          5.2905130556        1.9848898119       -0.1535439478
 C          5.0904395984        3.3113443077        0.1905782165
 C          3.8019878612        3.8226049027        0.2408366642
 C          2.7151638305        3.0154276456       -0.0558913502
 C          2.9065702194        1.6872943728       -0.4063325528
 H          2.0651768061        1.0539633906       -0.6396684501
 H          1.7077540830        3.3990002612       -0.0191459174
 H          3.6429460448        4.8546820008        0.5114737915
 H          5.9355255561        3.9404474251        0.4196766832
 H          6.2732911279        1.5450621096       -0.2092080976
 H          4.8761427027       -1.1773382367        1.2651939475
 H          3.5530568983       -0.5187316069        3.0820476110
 H          1.2897419287       -0.3966991352        4.0615862694
 H         -0.6794726152       -1.0063362026        2.7083538992
 C         -0.7805460255       -1.8507820582        0.1806965306
 H         -1.2624922914       -2.7083407154        0.6740554242
 C         -0.4999462182       -2.2180631502       -1.2613896229
 C         -0.0861110329       -3.6133675643       -1.6177821101
 C         -1.4545413377       -3.1216626664       -1.9800690555
 H         -1.6742704723       -2.9202059204       -3.0179254698
 H         -2.2984895659       -3.4966888364       -1.4194011565
 H          0.6395755796       -3.7473336093       -2.4061168584
 H         -0.0009800377       -4.3297496297       -0.8146328551
 H         -0.0664877666       -1.4003172827       -1.8277883522
 O         -3.4577178537       -2.1380190182        1.1405617576
