  62
        -98.93765142
 C          1.8081342615       -0.4455691828       -0.2782295000
 C          2.9279313049       -0.4723254538       -1.1391684984
 C          4.2501075336       -0.5912572663       -0.4998492920
 C          4.3297047448       -0.6586295636        0.8425569298
 C          5.5225359894       -0.8159671053        1.7628373466
 C          6.9432680967       -0.6047885033        1.2458886390
 C          7.2740508514        0.8345611183        0.8524873138
 H          8.2714783514        0.8467447823        0.4076229487
 H          7.3069958771        1.4437741244        1.7593023816
 C          6.2926457387        1.4972889100       -0.1109360929
 H          6.6448280528        2.5151946451       -0.2996013598
 H          5.3124794772        1.5797062656        0.3633568435
 C          6.1335160229        0.8032793021       -1.4622323442
 H          7.1120467569        0.6814903116       -1.9307708669
 H          5.5368343329        1.4599603987       -2.1014079679
 C          5.4329142973       -0.5659867345       -1.4247710959
 H          6.1315860097       -1.3615563077       -1.1774210118
 H          5.0427156868       -0.7718870411       -2.4258639224
 H          7.1494190472       -1.2818960302        0.4222591973
 H          7.6153795037       -0.8853862355        2.0614393803
 H          5.4504099233       -1.8304499186        2.1701346844
 H          5.3422247483       -0.1352419631        2.6009283416
 O          3.2158544335       -0.6369833827        1.6326985667
 C          1.9392290300       -0.5261362753        1.1068138441
 O          1.0313155779       -0.5102962349        1.9582714098
 O          2.8305269929       -0.4013815697       -2.3946963645
 C          0.4196962980       -0.3226467870       -0.8750262522
 C         -0.2916752449        0.8996286064       -0.3487195893
 C          0.4172516312        2.0870757289       -0.1850876987
 C         -0.2049100161        3.2232061106        0.2930647377
 C         -1.5551330169        3.2084254365        0.5957154553
 C         -2.2778321252        2.0364016264        0.4167212473
 C         -1.6449811111        0.8906479838       -0.0470572083
 H         -2.2248951697       -0.0079930744       -0.1766161652
 N         -3.6477925549        1.9853543884        0.7147244253
 S         -4.6906249364        1.1880261860       -0.3232610331
 O         -4.2373553843        1.2593567506       -1.6925584876
 O         -5.9888189514        1.7704053929       -0.0545597574
 C         -4.7018390268       -0.5021432065        0.2352494739
 C         -4.8162018274       -1.5113597047       -0.7000706741
 C         -4.8818626714       -2.8260771580       -0.2649726717
 C         -4.8319916746       -3.1067075348        1.0915874564
 C         -4.7179441026       -2.0811851029        2.0181166967
 C         -4.6572448522       -0.7646035022        1.5901402572
 H         -4.5662757764        0.0549212476        2.2831916958
 H         -4.6759014523       -2.3035189267        3.0722751895
 H         -4.8805621740       -4.1302897904        1.4283450319
 H         -4.9703721242       -3.6243419400       -0.9849240366
 H         -4.8390189172       -1.2491897372       -1.7458496992
 H         -4.0437140570        2.8551894920        1.0405669591
 H         -2.0442876300        4.0963086808        0.9669640858
 H          0.3632508919        4.1320052553        0.4244149030
 H          1.4701595739        2.1058478932       -0.4318271064
 H          0.5757201677       -0.1830976051       -1.9559673943
 C         -0.3530514713       -1.6076998043       -0.6586528588
 C         -1.3689354443       -2.0652389773       -1.6608114678
 C         -0.0589147035       -2.7824459349       -1.5412401911
 H         -0.0479563522       -3.7682696544       -1.1016095937
 H          0.6764902879       -2.6429458621       -2.3202001009
 H         -2.2575801933       -2.5601661888       -1.2992138003
 H         -1.5336702171       -1.4422093284       -2.5273577790
 H         -0.5439535351       -1.8034396747        0.3907731972
