  62
        -98.94167530
 C          2.3782626516        1.0419297811        0.1234807630
 C          3.6382236895        0.9544607270        0.7730356109
 C          4.6429209822        0.0901703440        0.1413402530
 C          4.3178655906       -0.5826443413       -0.9770465745
 C          5.2233405186       -1.5383262468       -1.6974494975
 C          5.0421100444       -2.9731543627       -1.1829423442
 C          5.0877599740       -3.0938340537        0.3403113157
 H          4.2228933852       -2.5779258130        0.7640680343
 H          4.9805454488       -4.1527321522        0.5853701819
 C          6.3702058240       -2.5468527000        0.9828147669
 H          6.7198002344       -3.2623634187        1.7300115304
 H          7.1531776015       -2.4576455252        0.2288796089
 C          6.1989752109       -1.2049126530        1.6969401422
 H          7.0959250626       -1.0206455977        2.2941098048
 H          5.3530531116       -1.2622366513        2.3864601623
 C          5.9976692754        0.0138367537        0.7877225621
 H          6.7856805767        0.0432950054        0.0323321275
 H          6.0838158767        0.9092291035        1.4102365421
 H          5.8212770385       -3.5981487052       -1.6231557728
 H          4.0737177627       -3.3444406860       -1.5267802192
 H          4.9775809096       -1.5095580335       -2.7604462506
 H          6.2559793812       -1.2212328053       -1.5642862064
 O          3.0951070272       -0.4988044744       -1.5569153258
 C          2.0915589529        0.3070753742       -1.0285542315
 O          1.0323880150        0.2698159807       -1.6827016871
 O          3.9108040069        1.5757478053        1.8342573520
 C          1.3324254353        1.9356007263        0.7690777131
 C          0.0333575843        1.1888825330        0.9253131913
 C         -0.1112091050        0.2773250050        1.9669873167
 C         -1.2779009685       -0.4494109806        2.1107693005
 C         -2.3208938464       -0.2896900943        1.2148100596
 C         -2.1770733895        0.6003044862        0.1595037598
 C         -1.0129884307        1.3474245729        0.0316995648
 H         -0.9063984016        2.0275293302       -0.7988689936
 N         -3.2220712599        0.7723317282       -0.7610859509
 S         -4.1128400495       -0.5508371139       -1.2741554294
 O         -3.3433530186       -1.7731083270       -1.2646968288
 O         -4.6717884892       -0.1516839112       -2.5477691583
 C         -5.4300232916       -0.6483404334       -0.0769561972
 C         -5.7112151866       -1.8497672829        0.5432593144
 C         -6.7486062714       -1.9047780474        1.4613396125
 C         -7.4837152292       -0.7632351496        1.7410059012
 C         -7.1909816288        0.4353422126        1.1074730293
 C         -6.1562150687        0.4963659585        0.1880373656
 H         -5.8994393939        1.4066994495       -0.3271701997
 H         -7.7647634651        1.3212225473        1.3273581800
 H         -8.2896592327       -0.8081858582        2.4563578648
 H         -6.9776936862       -2.8362071826        1.9537981475
 H         -5.1098030328       -2.7110832479        0.2984740461
 H         -2.9796895021        1.3681131755       -1.5394139627
 H         -3.2270927783       -0.8645953639        1.3124888986
 H         -1.3779422424       -1.1503535616        2.9256330067
 H          0.7083919666        0.1391166962        2.6588067514
 H          1.7337082351        2.1350104218        1.7758636899
 C          1.1577550852        3.2915197103        0.1005022908
 C          2.3442966278        4.0341565373       -0.4348938914
 C          1.3029993244        3.5085437855       -1.3747516479
 H          0.6412775262        4.2171124916       -1.8521071781
 H          1.5457147640        2.6581178551       -1.9925217626
 H          2.4036605444        5.0997591091       -0.2730362178
 H          3.3001094731        3.5318002731       -0.4016119351
 H          0.4020886326        3.8880395893        0.6030183773
