  62
        -98.93357372
 C         -1.9347184348       -0.9683271390        0.2470380813
 C         -2.3238585567        0.0742673415        1.1204730413
 C         -2.7885897026        1.3330638862        0.5084419313
 C         -2.7593813746        1.4459691657       -0.8321554083
 C         -3.2186500461        2.6039760248       -1.6771362938
 C         -4.7508805098        2.6830376919       -1.7913197969
 C         -5.5103755073        2.4285028930       -0.4915169073
 H         -6.5755798576        2.3826935417       -0.7327825953
 H         -5.2258489028        1.4517413662       -0.0956491215
 C         -5.3228216392        3.4881904844        0.5913687805
 H         -5.6676514169        4.4525265527        0.2116454669
 H         -5.9648978072        3.2122496921        1.4316820963
 C         -3.8972328292        3.6596755901        1.1185905203
 H         -3.9542860930        4.2789857263        2.0186798569
 H         -3.2806048626        4.2039065614        0.4083484722
 C         -3.2061690426        2.3630328626        1.5304021140
 H         -3.8392148987        1.8320126537        2.2507744533
 H         -2.2913446935        2.6153042258        2.0819249776
 H         -5.0722383602        1.9299912211       -2.5147787516
 H         -5.0172230035        3.6652033711       -2.1848805492
 H         -2.8061570258        3.5307306466       -1.2889578585
 H         -2.8019159330        2.4480383075       -2.6745901462
 O         -2.3213535546        0.4360921214       -1.6352827852
 C         -1.8869338972       -0.7786683896       -1.1339600331
 O         -1.4997724289       -1.5766490853       -2.0084428675
 O         -2.2939763668       -0.0396441773        2.3775883550
 C         -1.4400771358       -2.2627212717        0.8648279778
 C         -0.1127823339       -2.6527401354        0.2617561535
 C          0.1798394617       -3.9239503668       -0.2125025548
 C          1.4321804830       -4.2039086577       -0.7328860319
 C          2.4109970645       -3.2311730861       -0.7927511666
 C          2.1235035968       -1.9492319210       -0.3320878806
 C          0.8770637476       -1.6780936790        0.2036567100
 H          0.6642210854       -0.6830044002        0.5697488370
 N          3.0817627650       -0.9285888732       -0.4391387653
 S          2.9554881502        0.4804355637        0.4651606027
 O          2.8459451213        0.1742425901        1.8753984868
 O          1.9132554288        1.3063667841       -0.0940523319
 C          4.5488975870        1.2021940568        0.1210448922
 C          4.7413214251        1.8247149820       -1.0980244193
 C          5.9852982086        2.3627304461       -1.3867595296
 C          7.0109664766        2.2694301414       -0.4573860058
 C          6.8026000723        1.6434688208        0.7622580806
 C          5.5609155557        1.1019550752        1.0567506039
 H          5.3491896146        0.6125660479        1.9937540891
 H          7.6005387811        1.5751429088        1.4838693262
 H          7.9778146134        2.6898961576       -0.6845633313
 H          6.1497138482        2.8522321965       -2.3330973168
 H          3.9116928313        1.8795081956       -1.7838279579
 H          4.0311769738       -1.2658401751       -0.5084796845
 H          3.3836190611       -3.4501816575       -1.2055696623
 H          1.6468602071       -5.1963276450       -1.0993882030
 H         -0.5746538148       -4.6927790349       -0.1915425091
 H         -1.2561079252       -2.0023684790        1.9222909643
 C         -2.4633098114       -3.3892876559        0.8688968926
 C         -3.9296567943       -3.1070323493        0.7395836121
 C         -3.2002938907       -3.8011764744       -0.3691174297
 H         -3.3910810243       -4.8527622267       -0.5259406729
 H         -2.9938526840       -3.2517268670       -1.2738626577
 H         -4.6164499131       -3.6786624090        1.3457704683
 H         -4.2300072800       -2.0800417702        0.5887342148
 H         -2.1916216308       -4.1815734555        1.5598215159
