  62
        -98.94116819
 C          2.5831009716        1.2122379266        0.4211765908
 C          2.4818747069        0.4377098962       -0.7616543640
 C          3.3116391598       -0.7779518100       -0.8047731380
 C          4.0842431748       -1.0938569726        0.2494093924
 C          4.9315980517       -2.3277570002        0.3571266713
 C          4.1540613090       -3.4777782947        1.0124049012
 C          2.7700707943       -3.7128326202        0.4061606292
 H          2.3264193674       -4.5653151253        0.9255143669
 H          2.1338551116       -2.8483868166        0.6130574302
 C          2.7760099215       -3.9824103736       -1.1050424047
 H          3.7769537989       -4.2745585204       -1.4251086642
 H          2.1096465392       -4.8223746635       -1.3125028399
 C          2.2920460143       -2.8108211961       -1.9619837792
 H          1.3248693270       -2.4580378857       -1.5916595884
 H          2.1329552467       -3.1784002020       -2.9794070040
 C          3.2444604249       -1.6115461927       -2.0532442277
 H          4.2399444678       -1.9544377112       -2.3429043414
 H          2.8652503222       -0.9492666658       -2.8370659510
 H          4.7480397764       -4.3893922436        0.9276617002
 H          4.0283044243       -3.2510950781        2.0737055647
 H          5.2660363994       -2.6205234160       -0.6360486429
 H          5.8029546159       -2.0944857478        0.9712843349
 O          4.1367104547       -0.3399887166        1.3772941357
 C          3.3745197502        0.8108995594        1.5000301884
 O          3.4807489544        1.3768500607        2.6067120288
 H          0.1659189307        0.6194116751        1.6077636233
 C         -0.3483645892        1.1936768657        0.8451059724
 C          0.3330656548        2.2216555359        0.2042957211
 C         -0.3302690223        2.9422788433       -0.7790073814
 C         -1.6380702908        2.6321421292       -1.1098382375
 C         -2.3118331957        1.6085319536       -0.4696739568
 C         -1.6556721286        0.8770413668        0.5118283518
 N         -2.3319190400       -0.1605654335        1.1782857851
 S         -3.1449700228       -1.3084198238        0.2597626315
 O         -3.1874936434       -2.4899933984        1.0946689497
 O         -2.5549669886       -1.4663319768       -1.0486545603
 C         -4.7900861727       -0.6418612024        0.1186732444
 C         -5.4835068973       -0.3720457012        1.2822533680
 C         -6.7649985367        0.1472594417        1.1925078230
 C         -7.3292739751        0.3841626141       -0.0522290617
 C         -6.6218489173        0.1035597334       -1.2111196647
 C         -5.3389804796       -0.4155268673       -1.1281542826
 H         -4.7494316076       -0.6452748607       -2.0016745126
 H         -7.0623104952        0.2872539135       -2.1778941039
 H         -8.3266271545        0.7891836484       -0.1196004673
 H         -7.3184876950        0.3657742725        2.0914973170
 H         -5.0102502392       -0.5752765486        2.2283487045
 H         -1.7763393862       -0.6116110762        1.8908153337
 H         -3.3277910627        1.3612664008       -0.7305026910
 H         -2.1395493573        3.1948692188       -1.8824526308
 H          0.1850807977        3.7272612372       -1.3072013613
 C          1.7617987093        2.4757887915        0.6197971858
 H          1.7658155282        2.6452011723        1.7096827088
 C          2.3636217867        3.7228711936       -0.0097843320
 C          3.8459842300        3.8584296821       -0.1858526619
 C          2.9579466362        3.7259681785       -1.3847140511
 H          2.8052883805        4.5967957139       -2.0055308288
 H          2.9604054310        2.7960745390       -1.9303970959
 H          4.3005909060        4.8163487835        0.0175496665
 H          4.4621656015        3.0154328625        0.0921618654
 H          1.8349066174        4.6209848514        0.2944629120
 O          1.7452957781        0.7327417915       -1.7371130073
