  62
        -98.93553246
 C         -2.3699592421       -1.3981410037        0.0279000221
 C         -3.0487325376       -0.6625683047        1.0318985970
 C         -3.8837395788        0.4683289712        0.5936472773
 C         -3.9498428313        0.7658915385       -0.7170714056
 C         -4.7336906436        1.8242686480       -1.4647526044
 C         -5.4053001830        2.9712283907       -0.7146998304
 C         -4.4389280365        3.9685829132       -0.0758456478
 H         -3.9457192736        4.5323662124       -0.8718309167
 H         -5.0204393404        4.6747099322        0.5207860179
 C         -3.3449103163        3.3625323097        0.8001061518
 H         -2.7227053274        4.1811153849        1.1726826130
 H         -2.6966481329        2.7245962222        0.1945298695
 C         -3.8378683204        2.5679116636        2.0077906655
 H         -2.9633881548        2.3229812917        2.6168523197
 H         -4.5027569671        3.1900552711        2.6100729507
 C         -4.5600305974        1.2494104157        1.6832136833
 H         -4.5272505969        0.6187811109        2.5763891882
 H         -5.6061072960        1.4209203319        1.4414505621
 H         -6.0021219672        3.5170173849       -1.4504982549
 H         -6.0976283941        2.5815603112        0.0256236345
 H         -5.5010750966        1.2815894792       -2.0279179539
 H         -4.0427744799        2.2373781787       -2.2069172055
 O         -3.2727122573        0.0349987877       -1.6491716209
 C         -2.4636755246       -1.0418514504       -1.3157561615
 O         -1.9095299121       -1.5672153786       -2.3009112669
 O         -2.9725333944       -0.9529043165        2.2556171561
 C         -1.5162516417       -2.5646841377        0.4967735224
 C         -0.0928749561       -2.1131040935        0.7008367400
 C          0.5415289563       -2.2536942815        1.9287555825
 C          1.8348593615       -1.7936810996        2.1097875854
 C          2.5189743873       -1.1845418498        1.0730646444
 C          1.8913015427       -1.0356868258       -0.1569307846
 C          0.5987454187       -1.5016117292       -0.3369299975
 H          0.1133966322       -1.3794009934       -1.2948057743
 N          2.5773634128       -0.4012928558       -1.2164928056
 S          2.9299679609        1.2264195248       -0.9596030745
 O          1.9601386917        1.8410510698       -0.0803134216
 O          3.0632159884        1.8067955403       -2.2781534638
 C          4.5282294271        1.1861785615       -0.1766198855
 C          5.5840104232        0.6444074747       -0.8836965385
 C          6.8340964895        0.5979603905       -0.2876786161
 C          7.0064162246        1.0932193356        0.9965563758
 C          5.9371195238        1.6378324835        1.6912217916
 C          4.6833895292        1.6861342645        1.1013314524
 H          3.8209338920        2.0941555708        1.6038052681
 H          6.0729211772        2.0230660873        2.6890112109
 H          7.9801533444        1.0549740524        1.4587775782
 H          7.6680535877        0.1758074570       -0.8247799332
 H          5.4060894658        0.2763855122       -1.8803183588
 H          2.0903452864       -0.4944780138       -2.0980569844
 H          3.5252672161       -0.8227024350        1.2077972957
 H          2.3143159600       -1.9079076607        3.0698471506
 H          0.0064289051       -2.7089899516        2.7491388315
 H         -1.9249674938       -2.8254911392        1.4855727466
 C         -1.6436847737       -3.7959269970       -0.3901962775
 C         -0.5108819819       -4.3768117432       -1.1779749120
 C         -1.0148996455       -5.0889324004        0.0388232756
 H         -1.5731153845       -6.0041445580       -0.0861603102
 H         -0.3932040523       -5.0651401308        0.9211740813
 H         -0.7391048343       -4.7815403592       -2.1523135730
 H          0.4533598760       -3.8965933798       -1.1236606435
 H         -2.6245997987       -3.8621183260       -0.8497766660
