  62
        -98.93678599
 C         -2.4238850196       -1.2092563712       -0.1429131399
 C         -2.3126465298        0.0744483787        0.4457088804
 C         -3.5839222198        0.7227115784        0.8106012606
 C         -4.7426022698        0.0660667983        0.6246702506
 C         -6.1058418198        0.6297716980        0.9002655209
 C         -6.6845237200        1.3190154382       -0.3433706489
 C         -5.7223137702        2.3028276385       -1.0091468488
 H         -4.8725735702        1.7512501087       -1.4183156790
 H         -6.2490512604        2.7522252086       -1.8537351487
 C         -5.2047943803        3.4109909784       -0.0815203686
 H         -5.8499746802        3.4934422281        0.7937988714
 H         -5.2544988205        4.3638665785       -0.6125603384
 C         -3.7552609802        3.2313306185        0.3739548612
 H         -3.4247882603        4.1656280984        0.8358712114
 H         -3.1160540103        3.0555034588       -0.4955462289
 C         -3.5081996300        2.1078142683        1.3888635509
 H         -2.4865334299        2.2183632584        1.7650273108
 H         -4.1972146599        2.2134128480        2.2293778010
 H         -6.9480805200        0.5509640783       -1.0741527491
 H         -7.5984017401        1.8410820880       -0.0543875487
 H         -6.7643745797       -0.1909488621        1.1892906907
 H         -6.0399860998        1.3381225579        1.7237182410
 O         -4.8043221296       -1.1916944716        0.1175792203
 C         -3.6559022596       -1.8545447614       -0.2818714599
 O         -3.8573781795       -3.0019943913       -0.7261800701
 H          1.3506600902       -0.9380237105       -0.8631907002
 C          1.1462946704       -1.3393424008        0.1140678797
 C         -0.0938794295       -1.8835697010        0.4079069997
 C         -0.3238578293       -2.3704504513        1.6922012296
 C          0.6562565408       -2.2920454614        2.6616078696
 C          1.8872043907       -1.7319080612        2.3693788196
 C          2.1327136405       -1.2556062408        1.0868815897
 N          3.4003276204       -0.7369889406        0.7625632296
 S          3.5858864001        0.5393701497       -0.3237705401
 O          2.9196616200        1.7285162995        0.1589659902
 O          3.2353388100        0.0938292799       -1.6481292402
 C          5.3548781301        0.7490560799       -0.2174588602
 C          6.1648933301       -0.1060997598       -0.9401807705
 C          7.5403409601        0.0319128303       -0.8444243806
 C          8.0809331901        1.0169462402       -0.0311651404
 C          7.2558767000        1.8694326600        0.6866899598
 C          5.8791559800        1.7358487498        0.5955151699
 H          5.1992874400        2.3824555096        1.1269569801
 H          7.6786669500        2.6366214299        1.3152331100
 H          9.1518604400        1.1227926104        0.0412809995
 H          8.1848957902       -0.6269474395       -1.4036168608
 H          5.6995458402       -0.8500871198       -1.5653080606
 H          3.9598016904       -0.5620645907        1.5870968696
 H          2.6510799507       -1.6629641412        3.1292936595
 H          0.4597837909       -2.6633708016        3.6564171095
 H         -1.2914000192       -2.7968732415        1.9226795597
 C         -1.2037384596       -1.9840010310       -0.6099822802
 H         -1.5310595594       -3.0368695810       -0.6455195004
 C         -0.7520834198       -1.6214711906       -2.0172108901
 C         -1.7178244299       -1.1061277405       -3.0408381199
 C         -0.6630721300       -0.2005510305       -2.4832422799
 H          0.1699496399        0.0808196498       -3.1117532199
 H         -0.9549242401        0.5711330993       -1.7878387397
 H         -2.7416050599       -0.9515500507       -2.7316998898
 H         -1.6165561300       -1.4506822403       -4.0589224200
 H          0.0152854903       -2.2975379204       -2.3828476604
 O         -1.2200908698        0.6605630988        0.6640219104
