  62
        -98.94501050
 C         -1.8487045114       -1.2532327419       -0.0386482517
 C         -3.0761603340       -0.9173306410        0.5803954978
 C         -3.8550540451        0.1483610165       -0.0648663260
 C         -3.3727384018        0.7344756372       -1.1760654536
 C         -4.0335455440        1.8700429851       -1.9016524456
 C         -3.5490408898        3.2273447327       -1.3725406971
 C         -3.5930057723        3.3486319341        0.1508540901
 H         -2.8734524259        2.6508405338        0.5863588545
 H         -3.2566203210        4.3557125525        0.4074826138
 C         -4.9760812853        3.0975494789        0.7679254246
 H         -5.1715229903        3.8696967980        1.5150102086
 H         -5.7456132001        3.1875144313        0.0004423532
 C         -5.1195721329        1.7477609732        1.4735610615
 H         -6.0475130485        1.7635065069        2.0513229409
 H         -4.2973308580        1.6151371994        2.1816789636
 C         -5.1718688256        0.5181879450        0.5579524401
 H         -5.4636679492       -0.3391184135        1.1718311161
 H         -5.9335691335        0.6648205945       -0.2105817715
 H         -2.5172631040        3.3800979275       -1.6984380584
 H         -4.1639655186        4.0113407522       -1.8180586232
 H         -3.7835464874        1.7934566893       -2.9611180405
 H         -5.1126618897        1.7886454508       -1.7864726608
 O         -2.1898471348        0.3862806856       -1.7430013696
 C         -1.3983010996       -0.6180303568       -1.1967037226
 O         -0.3433343758       -0.8313460376       -1.8193177620
 O         -3.5000898254       -1.4814226359        1.6258136809
 C         -1.0075358741       -2.3600674119        0.5653576614
 C          0.3933671372       -1.9064730652        0.8996182956
 C          1.4625159957       -2.7954821474        0.9343100633
 C          2.7345638803       -2.3590571366        1.2605151721
 C          2.9771357088       -1.0263577771        1.5380135825
 C          1.9195466263       -0.1275032290        1.4915340135
 C          0.6394386018       -0.5740743167        1.1989494664
 H         -0.1786049485        0.1355392264        1.1806835381
 N          2.1624390406        1.2379423837        1.7166093550
 S          3.5059830092        1.9125091392        0.9746970559
 O          4.6527006319        1.7532431862        1.8357925567
 O          3.1305627186        3.2801618046        0.6866112032
 C          3.7701888487        0.9967066598       -0.5352418599
 C          5.0307299474        0.5041596008       -0.8090744143
 C          5.2301947424       -0.2190269434       -1.9737131409
 C          4.1680000696       -0.4473527006       -2.8351577046
 C          2.9086592995        0.0554622651       -2.5475868870
 C          2.7074079314        0.7911467451       -1.3914535784
 H          1.7293059610        1.1787391541       -1.1546619411
 H          2.0677327447       -0.1355225084       -3.1947167713
 H          4.3190160349       -1.0231365702       -3.7346140333
 H          6.2090217012       -0.6098172641       -2.2006530794
 H          5.8229272895        0.6895210311       -0.1018391923
 H          1.3508372603        1.8235303280        1.5853010309
 H          3.9625388308       -0.6664110988        1.7866375183
 H          3.5507439144       -3.0640815196        1.2902714903
 H          1.2965777280       -3.8350033767        0.7041286362
 H         -1.5123135642       -2.6287927069        1.5062686338
 C         -1.0181795313       -3.5703145730       -0.3505520840
 C         -1.0547299338       -4.9591878088        0.2116170801
 C         -2.2706950527       -4.3870752861       -0.4505204926
 H         -2.5645006267       -4.7673858045       -1.4173172111
 H         -3.1025545398       -4.0928274959        0.1730097413
 H         -0.5122849566       -5.7378576133       -0.3032855268
 H         -1.0719579757       -5.0666785334        1.2858067252
 H         -0.4577011504       -3.4012504190       -1.2631875063
