  62
        -98.94515416
 C         -1.5345826425       -0.8042474295        0.0518186399
 C         -2.8094952959       -1.4139076082        0.1101936262
 C         -3.9084945343       -0.5501430565        0.5569051636
 C         -3.6563746215        0.7256830364        0.9027470621
 C         -4.6672145082        1.7221926197        1.4025423958
 C         -5.4440991850        2.4362251414        0.2879986816
 C         -6.4834280418        1.5772633668       -0.4333814390
 H         -7.1374130333        1.1062628185        0.3012048265
 H         -7.0990069387        2.2527469641       -1.0308670689
 C         -5.8880285168        0.5056017921       -1.3573371254
 H         -4.8416386474        0.7420092452       -1.5634083944
 H         -6.4131805076        0.5175088884       -2.3151262844
 C         -5.9735604864       -0.9200454324       -0.8121927868
 H         -5.4910698478       -1.5901569760       -1.5283959658
 H         -7.0209831268       -1.2179474888       -0.7262483602
 C         -5.2963333191       -1.1164110191        0.5505505292
 H         -5.8977354799       -0.6629719713        1.3383045361
 H         -5.2185262906       -2.1894000239        0.7431457802
 H         -4.7299593414        2.8302604761       -0.4385487517
 H         -5.9591632183        3.2856713872        0.7425186012
 H         -4.1101269817        2.4717288450        1.9685748171
 H         -5.3676936375        1.2281367411        2.0764382198
 O         -2.4101105475        1.2667951653        0.8561126162
 C         -1.3209652783        0.5257030135        0.4166228255
 O         -0.2451817095        1.1496415033        0.4047487709
 O         -3.0172423605       -2.6215692604       -0.1867015759
 C         -0.3460025681       -1.6178343659       -0.4244557809
 C          0.7482120319       -1.5974076948        0.6129260182
 C          0.4280265827       -1.8638423161        1.9421909619
 C          1.3991524801       -1.8294157255        2.9231166053
 C          2.7097605129       -1.5186351531        2.6037019977
 C          3.0429943639       -1.2683229335        1.2787715091
 C          2.0676184781       -1.3229517739        0.2917174888
 H          2.3594933125       -1.1498281584       -0.7294816429
 N          4.3638384825       -0.9722101366        0.9201509114
 S          4.7099127607       -0.0085032495       -0.3967370463
 O          4.5440209321       -0.7595140945       -1.6164142264
 O          6.0518933915        0.4692550221       -0.1368420399
 C          3.5665404808        1.3591076075       -0.3560659167
 C          3.4790907867        2.1157679961        0.7944804950
 C          2.6091554731        3.1923663768        0.8223435041
 C          1.8481042038        3.4953762696       -0.2949166637
 C          1.9515849084        2.7297149171       -1.4440850292
 C          2.8174235543        1.6496782379       -1.4768067441
 H          2.9221986002        1.0233710763       -2.3491380365
 H          1.3529364162        2.9640222126       -2.3103282426
 H          1.1641451869        4.3288150185       -0.2679880418
 H          2.5203076081        3.7880725833        1.7167369717
 H          4.0867615980        1.8602741334        1.6476217191
 H          4.9975599827       -0.8149819271        1.6890424692
 H          3.4674197638       -1.4760781128        3.3709899961
 H          1.1336766820       -2.0353724635        3.9492008222
 H         -0.5982791408       -2.0918512513        2.1963938311
 H         -0.7132595511       -2.6502463118       -0.5246752836
 C          0.1084508083       -1.1248289560       -1.7824421392
 C          0.7889119225       -2.0558112568       -2.7394516036
 C         -0.6098863611       -1.5916521649       -3.0113442414
 H         -0.7752163174       -0.8869026756       -3.8124560545
 H         -1.4174758797       -2.2964132592       -2.8763935603
 H          1.5932289988       -1.6734283262       -3.3505203864
 H          0.9314727590       -3.0786804502       -2.4247096261
 H          0.4350286005       -0.0905978055       -1.7555105397
