  62
        -98.93978292
 C         -1.7437769620       -1.3170495534        0.4838595205
 C         -1.5468034417       -0.2505783368       -0.4293192925
 C         -2.7632640288        0.2778173044       -1.0707694631
 C         -3.9592257131       -0.2604147384       -0.7754480326
 C         -5.2757629267        0.2183352757       -1.3132817549
 C         -5.9006643414        1.2710698899       -0.3872780453
 C         -4.9386139765        2.3896467275        0.0137936282
 H         -5.4964846083        3.0901867907        0.6390122282
 H         -4.1413266910        1.9723149041        0.6335843124
 C         -4.3152693846        3.1451820633       -1.1682289037
 H         -4.9017306822        2.9700472263       -2.0709934466
 H         -4.3544180519        4.2163116941       -0.9589983855
 C         -2.8500076906        2.7998107825       -1.4419184741
 H         -2.2706263567        2.8881629513       -0.5186142172
 H         -2.4522912861        3.5376665337       -2.1442389881
 C         -2.5904070952        1.4120568266       -2.0414140950
 H         -3.2200193403        1.2675724067       -2.9219671917
 H         -1.5432692930        1.3829129365       -2.3572853417
 H         -6.7705331704        1.6996497702       -0.8882298469
 H         -6.2434692003        0.7726135891        0.5223939706
 H         -5.1270845456        0.6356496210       -2.3071704482
 H         -5.9504183752       -0.6365056062       -1.3842511687
 O         -4.1094067341       -1.2843837826        0.1024796106
 C         -3.0182547176       -1.8165181767        0.7688113297
 O         -3.3087527785       -2.7190836439        1.5791876467
 H          1.8968119017       -0.9244543136        0.6148621409
 C          1.4666816596       -0.4597064197        1.4866798678
 C          0.2120516661       -0.8468679476        1.9329676327
 C         -0.3308089812       -0.2089625289        3.0452341938
 C          0.3692552965        0.7811476307        3.7064648597
 C          1.6235568800        1.1595710450        3.2619428838
 C          2.1683150917        0.5435047907        2.1427035495
 N          3.4488959326        0.9069286502        1.6749584547
 S          3.5433323429        1.6409796038        0.1598428128
 O          4.7987306775        2.3660950905        0.2002985968
 O          2.3706581083        2.4377479038       -0.1125677855
 C          3.7076741533        0.3023456464       -0.9984037499
 C          4.9230245605       -0.3527841519       -1.0515694533
 C          5.0930791180       -1.3744025894       -1.9711020764
 C          4.0530164850       -1.7129097898       -2.8242678176
 C          2.8404247800       -1.0444606138       -2.7563353561
 C          2.6579363417       -0.0272788432       -1.8311368757
 H          1.7188293402        0.4927643376       -1.7261334743
 H          2.0301256593       -1.3110750872       -3.4164611025
 H          4.1863696570       -2.5033281856       -3.5463873173
 H          6.0332587519       -1.8993636081       -2.0244796730
 H          5.7089679468       -0.0418154069       -0.3835871770
 H          3.9608903663        1.4791584925        2.3334871150
 H          2.1766149075        1.9343001693        3.7727849349
 H         -0.0629238721        1.2631170629        4.5707099096
 H         -1.3144374735       -0.5039007930        3.3861933449
 C         -0.5960408670       -1.9331397844        1.2677297050
 H         -1.0869063335       -2.5113790204        2.0676615141
 C          0.2552215618       -2.9238273803        0.4887715996
 C         -0.3990562020       -3.9213074714       -0.4199202839
 C          0.4731431459       -2.8454718631       -0.9899381250
 H          1.4446494158       -3.1220766402       -1.3723188953
 H          0.0074371125       -2.0351262603       -1.5265354249
 H         -1.4681324956       -3.8396470244       -0.5547656310
 H         -0.0350282584       -4.9374851527       -0.4190057176
 H          1.0875255652       -3.2878401611        1.0834726482
 O         -0.4252074584        0.2397731963       -0.7139703665
