  62
        -98.94124175
 C         -2.3002830769       -1.0814753068       -0.6085017370
 C         -3.5583295457       -0.8101446126       -0.0111459999
 C         -4.1725400761        0.4806286077       -0.3443292960
 C         -3.5265421106        1.3195047298       -1.1743723323
 C         -4.0045947246        2.6908719001       -1.5521745433
 C         -3.4502824422        3.7541148362       -0.5937049109
 C         -3.6335044036        3.4092042109        0.8844355197
 H         -3.0220849052        2.5358395357        1.1253925384
 H         -3.2355059101        4.2447802055        1.4645576245
 C         -5.0873978875        3.1436313534        1.2999737639
 H         -5.7667723525        3.5542552607        0.5522199991
 H         -5.2830111662        3.6666962161        2.2383549045
 C         -5.4222306179        1.6693201384        1.5339943858
 H         -4.6838966482        1.2295819009        2.2095651934
 H         -6.3940058281        1.6166123538        2.0319926407
 C         -5.5046465114        0.7959669032        0.2756384651
 H         -5.9352225865       -0.1664003994        0.5670382840
 H         -6.1687145092        1.2633951328       -0.4540415559
 H         -3.9409459260        4.7046641514       -0.8108080304
 H         -2.3808892038        3.8709938905       -0.7853497590
 H         -3.6575847584        2.9100083029       -2.5632983461
 H         -5.0926076905        2.7069445147       -1.5395698091
 O         -2.3264370714        1.0249821162       -1.7328793598
 C         -1.6731631412       -0.1674285144       -1.4554563690
 O         -0.5739947152       -0.2793163155       -2.0328640891
 H          0.9683035842       -1.7530608917       -0.8492314565
 C          0.7795991253       -1.7418124418        0.2127665214
 C         -0.4796016809       -2.0743036428        0.6890466428
 C         -0.7092610133       -2.0154601662        2.0604608005
 C          0.2953439805       -1.6292575880        2.9288820429
 C          1.5462472893       -1.2831781647        2.4484397271
 C          1.7813531899       -1.3313014065        1.0811988494
 N          3.0461313714       -0.9553833541        0.5768138609
 S          3.5705437786        0.5767993334        1.0700527891
 O          4.1568525142        0.4514148548        2.3817018254
 O          2.4949915940        1.5374146029        0.9533719419
 C          4.8422517234        0.9158577064       -0.1309937068
 C          4.4744613472        1.4598357049       -1.3473605915
 C          5.4550321210        1.7033643816       -2.2959925430
 C          6.7784619064        1.3978548717       -2.0144530189
 C          7.1312311376        0.8511866332       -0.7897970887
 C          6.1557969827        0.6054470622        0.1637048483
 H          6.3815304729        0.1887207033        1.1312550557
 H          8.1612479939        0.6167378645       -0.5750354538
 H          7.5387066177        1.5897041718       -2.7550416083
 H          5.1822211715        2.1291237761       -3.2483257133
 H          3.4345224971        1.6897977294       -1.5219713507
 H          3.0525823025       -0.9987754082       -0.4347676969
 H          2.3317652787       -0.9528157610        3.1088646090
 H          0.1016154097       -1.5873218427        3.9903750419
 H         -1.6943550193       -2.2542346518        2.4365061653
 C         -1.6201682879       -2.3931443992       -0.2460960648
 H         -2.3720698897       -2.9617325559        0.3169861399
 C         -1.2100275464       -3.2006775358       -1.4591653667
 C         -0.8548077687       -4.6460394604       -1.2841986267
 C         -2.1302406008       -4.2658424681       -1.9724643037
 H         -2.2046392435       -4.4098869613       -3.0399087662
 H         -3.0609676930       -4.4186397252       -1.4460809142
 H         -0.0519240839       -5.0554940730       -1.8776088624
 H         -0.9190868255       -5.0559207244       -0.2876060506
 H         -0.6610880075       -2.6290069279       -2.1964109165
 O         -4.1419126727       -1.6149756140        0.7627364379
