  62
        -98.93754356
 C          1.9235142799        1.0783820464       -0.3125424122
 C          3.0112347428        1.1972601185        0.5927628124
 C          4.2572881750        0.5110340488        0.2247750955
 C          4.3068888225       -0.1735747020       -0.9319519920
 C          5.4722284498       -0.9878702945       -1.4172626077
 C          5.5246399568       -2.3337823710       -0.6664517838
 C          6.7509420947       -2.5083193753        0.2297248583
 H          6.5728321207       -3.3821062613        0.8602196573
 H          7.6193849985       -2.7253228260       -0.3958489503
 C          7.1028322992       -1.3132095889        1.1209155728
 H          7.6313874003       -0.5607789805        0.5336737318
 H          7.8090664384       -1.6741688180        1.8716440381
 C          5.9250157189       -0.6391804439        1.8366274409
 H          5.0933205641       -1.3351998496        1.9492115118
 H          6.2499324030       -0.3679061626        2.8431401011
 C          5.4219329678        0.6523478427        1.1652342500
 H          5.0707925143        1.3362791798        1.9435035588
 H          6.2517660440        1.1418571759        0.6479181028
 H          4.6169974968       -2.4271165655       -0.0661160412
 H          5.5087542792       -3.1532354909       -1.3867407631
 H          6.3955171720       -0.4316516971       -1.2709018875
 H          5.3300745624       -1.1542926043       -2.4853113125
 O          3.2485587428       -0.2635827053       -1.7756007493
 C          2.0347562998        0.3472982814       -1.4946244882
 O          1.1726318904        0.1564864179       -2.3764760743
 O          2.9422206934        1.8603106369        1.6618873289
 C          0.6372731166        1.7911747560        0.0734380607
 C         -0.3694255283        0.8215248089        0.6450550526
 C         -0.7199917696        0.8724474546        1.9892350191
 C         -1.6428382489       -0.0165933140        2.5127979948
 C         -2.2366017985       -0.9706398558        1.7067196978
 C         -1.8930867351       -1.0281452161        0.3615964343
 C         -0.9724078922       -0.1325020272       -0.1627671989
 H         -0.6970278651       -0.1945327314       -1.2049335709
 N         -2.4985791434       -1.9883962341       -0.4676085662
 S         -4.1626329048       -2.1387822018       -0.3680936624
 O         -4.5033701751       -2.9908562506        0.7447239414
 O         -4.5877422953       -2.6043284175       -1.6695384023
 C         -4.7594631758       -0.4848061178       -0.0623169915
 C         -5.4504555310       -0.2051866069        1.0988668484
 C         -5.8683897473        1.0950077556        1.3337498019
 C         -5.5849800592        2.0885206150        0.4099270754
 C         -4.8929229525        1.7906457488       -0.7540512683
 C         -4.4739270666        0.4926948151       -0.9950448142
 H         -3.9353808830        0.2297180022       -1.8915952306
 H         -4.6737742444        2.5646015486       -1.4719190195
 H         -5.9049609385        3.1015561377        0.5957769053
 H         -6.4084701537        1.3289315775        2.2369696422
 H         -5.6452760985       -1.0074266064        1.7917838249
 H         -2.1864042885       -1.9463381846       -1.4267977575
 H         -2.9504435699       -1.6778082737        2.0973032682
 H         -1.9017701615        0.0325989878        3.5592785863
 H         -0.2504745566        1.6065327512        2.6275227463
 H          0.9270631923        2.4808979793        0.8771284197
 C          0.0382652597        2.6014767042       -1.0598506601
 C         -0.9382178409        3.6906109818       -0.7359770878
 C          0.4365206643        4.0364013664       -1.2224399036
 H          0.5503457193        4.4290534326       -2.2218334177
 H          1.1430597210        4.4419856582       -0.5130069038
 H         -1.7718646212        3.8477295046       -1.4025392038
 H         -1.1666152799        3.8637780576        0.3044976304
 H         -0.1250388282        2.0284703045       -1.9629714703
