  62
        -98.94857531
 C         -0.9851316702       -1.7372993301        0.2899756809
 C         -1.6416812906       -0.8370724395        1.1609503101
 C         -2.8145812606       -0.1519543701        0.6071389692
 C         -3.1654739802       -0.3610150511       -0.6747311507
 C         -4.3434210000        0.2538574482       -1.3816691715
 C         -4.0782268401        1.6659449478       -1.9210863325
 C         -4.0290436006        2.7673145286       -0.8615779633
 H         -4.0743905606        3.7216659782       -1.3901802540
 H         -4.9141729508        2.7021242990       -0.2275163735
 C         -2.7645698508        2.7483086795        0.0085391971
 H         -1.9925794406        2.1548638992       -0.4905725722
 H         -2.3747604610        3.7663148596        0.0974915565
 C         -2.9791615712        2.2175298805        1.4266687474
 H         -3.6444048814        2.8922956108        1.9706005667
 H         -2.0154485513        2.2045110410        1.9408612377
 C         -3.5610137110        0.8006035404        1.4927698783
 H         -3.4640954912        0.4404487112        2.5201438386
 H         -4.6174827609        0.8148398901        1.2251229880
 H         -3.1367009299        1.6570516176       -2.4764751222
 H         -4.8794079899        1.9027022072       -2.6253802129
 H         -4.5733674297       -0.3997252524       -2.2259860611
 H         -5.2049065602        0.2738991986       -0.7130029918
 O         -2.4823220598       -1.2033601116       -1.4938638599
 C         -1.3776962798       -1.9070060411       -1.0375358791
 O         -0.8522844695       -2.6460292316       -1.8928821984
 O         -1.2722765810       -0.6244177486        2.3474905800
 C          0.2199742697       -2.5118619095        0.7939841018
 C          1.4102770899       -2.2235674500       -0.0861058380
 C          2.2458307202       -3.2052806402       -0.6011618271
 C          3.2796798204       -2.8622821207       -1.4557386470
 C          3.4969667104       -1.5458597009       -1.8159128779
 C          2.6789779501       -0.5525398907       -1.2859665889
 C          1.6661038298       -0.8959642502       -0.4071220089
 H          1.0227543096       -0.1266677800       -0.0057179397
 N          2.8960359899        0.7919510991       -1.6051419698
 S          1.8113022697        2.0007936892       -1.2513055710
 O          0.4455152498        1.6473444788       -1.5656786311
 O          2.3334471997        3.1540299088       -1.9558019817
 C          2.0136712091        2.2505174005        0.5002476389
 C          0.9277614588        2.6676401409        1.2421119283
 C          1.0854194184        2.8946520219        2.5999683681
 C          2.3244598382        2.7031897625        3.1903745087
 C          3.4081198685        2.2896131522        2.4307936193
 C          3.2564388590        2.0630059311        1.0722365794
 H          4.0783011392        1.7377859008        0.4566870899
 H          4.3705073684        2.1405181026        2.8933671597
 H          2.4438317679        2.8762232933        4.2482276586
 H          0.2407539282        3.2137220622        3.1898037677
 H         -0.0206112711        2.7936553504        0.7454439979
 H          3.4980615801        0.9846495186       -2.3896909397
 H          4.2851677805       -1.2838381113       -2.5046884679
 H          3.9158512307       -3.6347601609       -1.8604641263
 H          2.0774063303       -4.2397975701       -0.3511699164
 H          0.4237098794       -2.1180497288        1.8009395116
 C         -0.1118730501       -3.9856571895        0.9017458528
 C          0.5713073597       -4.8440885986        1.9230137936
 C         -0.8691393404       -4.4715710787        2.0999278629
 H         -1.6226213102       -5.2320142790        1.9594429933
 H         -1.1225509107       -3.7406729282        2.8537919023
 H          0.8063165300       -5.8653861288        1.6639336244
 H          1.2981756595       -4.3721541881        2.5663132635
 H         -0.3596684297       -4.4251901702       -0.0583046469
