  62
        -98.94612426
 C         -0.9879637517       -1.5887513597       -0.1267669876
 C         -1.1510276714       -0.2134897961       -0.4265554187
 C         -2.2277114794        0.4742989481        0.2991443673
 C         -2.9209906487       -0.1709307672        1.2524071736
 C         -4.0132646121        0.4131159422        2.1069108876
 C         -5.3975455078        0.4072057894        1.4434729369
 C         -5.5824728869        1.4212138983        0.3138239274
 H         -6.6505591663        1.4596846965        0.0906842181
 H         -5.2872443188        2.4104139188        0.6650124177
 C         -4.8201391536        1.0802894172       -0.9741863729
 H         -5.4815311228        1.2110472720       -1.8335331552
 H         -4.5245930676        0.0288863479       -0.9541556585
 C         -3.5792160271        1.9380501154       -1.2215494656
 H         -3.8779450005        2.9777046124       -1.3716992465
 H         -3.0979639769        1.5880265058       -2.1378952768
 C         -2.5403323544        1.8866124215       -0.0933305555
 H         -1.6139393572        2.3367228716       -0.4565971363
 H         -2.8905983455        2.4520468388        0.7703712327
 H         -6.1321758674        0.6241539130        2.2224882540
 H         -5.5989762214       -0.5986949784        1.0678923503
 H         -3.7477778826        1.4312818802        2.3938614906
 H         -4.0604511905       -0.1991503124        3.0103175218
 O         -2.6826677626       -1.4716173820        1.5699040351
 C         -1.7397665995       -2.2091210141        0.8752382493
 O         -1.6628896400       -3.4023280368        1.2363658551
 O         -0.4524221127        0.4323667573       -1.2517895284
 C          0.0333441280       -2.4864167530       -0.8092914136
 C          1.3806907323       -2.3687866724       -0.1381768776
 C          2.0741691545       -3.4949925721        0.2888867676
 C          3.2978021170       -3.3678043712        0.9222396761
 C          3.8391714558       -2.1177024886        1.1634604620
 C          3.1512025503       -0.9865445571        0.7403157885
 C          1.9451262230       -1.1192648402        0.0705234231
 H          1.4249280339       -0.2363361007       -0.2615952999
 N          3.6556681106        0.3031660443        0.9669472001
 S          2.5913037606        1.5342828727        1.3698190005
 O          3.4071973067        2.4912167545        2.0932137279
 O          1.4410805074        1.0342456732        2.0893509360
 C          2.1063495896        2.2838992628       -0.1694606429
 C          1.0431561433        3.1627383689       -0.1330805010
 C          0.6637578423        3.8081304445       -1.2984809398
 C          1.3515367637        3.5626642032       -2.4759521756
 C          2.4183328504        2.6790008279       -2.4946958489
 C          2.8064366485        2.0339953878       -1.3310641158
 H          3.6254603571        1.3338399372       -1.3175851147
 H          2.9470641136        2.4842545289       -3.4141466041
 H          1.0486403643        4.0587702229       -3.3846803148
 H         -0.1701450489        4.4924206056       -1.2855052638
 H          0.5270982385        3.3111790848        0.8030885740
 H          4.4978809974        0.3459057850        1.5223418526
 H          4.7812777998       -2.0158497889        1.6804538132
 H          3.8274947099       -4.2497780422        1.2491478946
 H          1.6399530148       -4.4726052273        0.1394850809
 H         -0.3248487063       -3.5145502775       -0.6599140040
 C          0.1598690923       -2.2328607755       -2.2993752862
 C          0.6637609588       -3.3304933896       -3.1851953014
 C         -0.7770856757       -2.9216108630       -3.2433755069
 H         -1.1285527112       -2.3781029723       -4.1072850175
 H         -1.5141640781       -3.5877634314       -2.8181581701
 H          1.3057145454       -3.0695342179       -4.0122033816
 H          0.9019400884       -4.2776056506       -2.7252829126
 H          0.4488670990       -1.2173862195       -2.5350573953
