  62
        -98.94947892
 C         -1.0751961311       -1.7264663749        0.1204339633
 C         -1.7013688626       -0.9369652439        1.1136116805
 C         -2.8411934275       -0.1280986710        0.6679510169
 C         -3.2156740366       -0.1600951280       -0.6239488340
 C         -4.3562350260        0.6089557767       -1.2333559963
 C         -4.0014509393        2.0575910044       -1.5967338087
 C         -3.8936849312        3.0184708208       -0.4118549975
 H         -3.8868477795        4.0303736216       -0.8220283395
 H         -4.7816330675        2.9252561837        0.2150779065
 C         -2.6321646058        2.8294490409        0.4418061414
 H         -2.1931828885        3.8065698750        0.6603108450
 H         -1.8855904503        2.2776004185       -0.1356397302
 C         -2.8709056869        2.1324568429        1.7815708315
 H         -1.9076513106        2.0195857481        2.2848617520
 H         -3.5038457415        2.7638187449        2.4097802007
 C         -3.5230655748        0.7479053791        1.6764620307
 H         -3.4375242862        0.2569084233        2.6493988882
 H         -4.5796870097        0.8511121061        1.4295517026
 H         -3.0575133238        2.0600897356       -2.1483259714
 H         -4.7813439061        2.4263689719       -2.2674605798
 H         -5.2115954468        0.6005681197       -0.5565672822
 H         -4.6314780384        0.0811379322       -2.1491003088
 O         -2.5940091300       -0.9384659718       -1.5486211409
 C         -1.5036821123       -1.7268429710       -1.2077649125
 O         -1.0221925073       -2.3738245121       -2.1576053564
 O         -1.3259639965       -0.9094708813        2.3172243328
 C          0.1335753659       -2.5566703365        0.5011808753
 C          1.3753579685       -2.1178067218       -0.2402207792
 C          2.4733480769       -2.9555744838       -0.4068215889
 C          3.6065434586       -2.5034349348       -1.0596982648
 C          3.6813149630       -1.2107447680       -1.5477257790
 C          2.5893506031       -0.3659199084       -1.3876187499
 C          1.4561287742       -0.8259753819       -0.7361422721
 H          0.6064742799       -0.1692951072       -0.6512705185
 N          2.6053924798        0.9451918779       -1.8794765122
 S          1.6987057438        2.1523454319       -1.1697433898
 O          0.2944923636        1.9587578347       -1.4318082718
 O          2.2757735511        3.3727784649       -1.6920611490
 C          2.0483218529        2.0252205617        0.5742896138
 C          1.0943619897        1.5491559736        1.4484798795
 C          1.4189812819        1.4032932948        2.7876501253
 C          2.6874078724        1.7431418300        3.2301672253
 C          3.6332677240        2.2353180125        2.3426328880
 C          3.3155438726        2.3731615079        1.0017310446
 H          4.0207892787        2.7583023497        0.2833848978
 H          4.6169007779        2.5054872813        2.6914771465
 H          2.9377424753        1.6252993736        4.2726393326
 H          0.6764515832        1.0079309564        3.4632553391
 H          0.1139056592        1.2907226408        1.0816337422
 H          3.4924460426        1.2743916157       -2.2280356384
 H          4.5656814258       -0.8619652564       -2.0580792537
 H          4.4481251802       -3.1669749256       -1.1880086182
 H          2.4362407385       -3.9651849838       -0.0310420134
 H          0.2964213805       -2.3584085596        1.5723964931
 C         -0.1538741214       -4.0355356790        0.3226893989
 C          0.3838919040       -5.0430234391        1.2935089140
 C         -1.0772729690       -4.7127190204        1.2897757794
 H         -1.7759534234       -5.4434687067        0.9110676464
 H         -1.4688872023       -4.1138190344        2.0992016219
 H          0.6898517045       -6.0075755246        0.9170939469
 H          0.9777167648       -4.6792394013        2.1185270735
 H         -0.2297091493       -4.3182746289       -0.7212660065
