  62
        -98.94353760
 C         -1.8199548116       -1.1230768759        0.4655833835
 C         -2.7579288863       -1.0212068927       -0.5908778597
 C         -4.0483966190       -0.4056153341       -0.2430760065
 C         -4.2564549821        0.0383085498        1.0093154213
 C         -5.5018257675        0.7305832592        1.4802777290
 C         -5.3873724037        2.2530762830        1.3207990379
 C         -4.9073679463        2.6951183141       -0.0617642185
 H         -4.8948222267        3.7872722004       -0.0677860824
 H         -3.8764192026        2.3627286057       -0.2056343866
 C         -5.7699562951        2.1873561937       -1.2256565455
 H         -5.9414701622        3.0128049564       -1.9197804450
 H         -6.7446940601        1.8698649435       -0.8533536156
 C         -5.1402466920        1.0502544227       -2.0323215590
 H         -5.7234025034        0.9204297772       -2.9478683388
 H         -4.1254271697        1.3288096139       -2.3278015113
 C         -5.0811254167       -0.3124874754       -1.3308895476
 H         -6.0697352761       -0.5720324942       -0.9468870513
 H         -4.7956215643       -1.0573847669       -2.0793231216
 H         -6.3631998185        2.6962244134        1.5278056536
 H         -4.6798345708        2.6275621775        2.0643647641
 H         -5.6480441890        0.4950632834        2.5358464969
 H         -6.3536276245        0.3588513140        0.9141161254
 O         -3.3208053926       -0.0501761694        1.9893138240
 C         -2.0826709168       -0.6142866424        1.7394537933
 O         -1.3090600050       -0.6070135627        2.7196976514
 O         -2.5461787009       -1.4239361672       -1.7632486342
 C         -0.4426334110       -1.7322380167        0.2523190966
 C          0.3979341939       -0.7509920283       -0.5274307303
 C          0.6157887983       -0.8461880558       -1.8954854965
 C          1.3883676327        0.0998423258       -2.5479869560
 C          1.9695312822        1.1444740893       -1.8521533414
 C          1.7571626372        1.2459444055       -0.4832860119
 C          0.9730743953        0.3064410797        0.1668480671
 H          0.7981087460        0.3902387095        1.2322456010
 N          2.4036554985        2.2738450994        0.2403641077
 S          4.0806724793        2.1538284479        0.2123605897
 O          4.5435003981        2.8070115151        1.4161870103
 O          4.5711357401        2.6939439053       -1.0300625574
 C          4.3817846459        0.3965751805        0.2776195393
 C          4.1711294595       -0.2553740333        1.4763542418
 C          4.2870137239       -1.6351436452        1.5186274354
 C          4.5992024280       -2.3363030734        0.3638384125
 C          4.8123236790       -1.6665844397       -0.8308863471
 C          4.7009641226       -0.2864092184       -0.8784207089
 H          4.8554714013        0.2724697594       -1.7864426949
 H          5.0555910456       -2.2153896923       -1.7261256084
 H          4.6776616833       -3.4117468949        0.3970293270
 H          4.1234466051       -2.1578604258        2.4476549486
 H          3.9286317777        0.3226436463        2.3541927295
 H          2.0875877781        2.3339594817        1.1984773288
 H          2.5923713264        1.8769848228       -2.3399920584
 H          1.5446743749        0.0187615700       -3.6127641044
 H          0.1648798790       -1.6518501010       -2.4502486973
 H         -0.0011513257       -1.8191353834        1.2544321960
 C         -0.4948381580       -3.1107578225       -0.3702537352
 C          0.7444948429       -3.9530879546       -0.3485613934
 C         -0.4231433154       -4.3144154073        0.5182157618
 H         -1.0118913106       -5.1811424167        0.2575157068
 H         -0.3428289910       -4.1475574458        1.5826645581
 H          0.9612111885       -4.5746042634       -1.2034199231
 H          1.6188570646       -3.5325130900        0.1255149690
 H         -1.1391889280       -3.1711274288       -1.2373862186
