  62
        -98.94349393
 C          1.8563650314        1.0984004699        0.4981455484
 C          2.7883674987        1.0357303548       -0.5666624587
 C          4.0893048023        0.4289800207       -0.2429867088
 C          4.3121794052       -0.0444537298        0.9959073542
 C          5.5684573112       -0.7352904363        1.4391707238
 C          5.4682546480       -2.2541467951        1.2399811839
 C          4.9830110332       -2.6643513859       -0.1505873774
 H          4.9818940939       -3.7560215527       -0.1856702519
 H          3.9476044895       -2.3393116542       -0.2783189493
 C          5.8318608283       -2.1167454317       -1.3065000553
 H          6.8059007063       -1.7988482147       -0.9327120714
 H          6.0069767492       -2.9216642112       -2.0234491199
 C          5.1843382195       -0.9655730952       -2.0783154759
 H          4.1705769851       -1.2472371389       -2.3744277790
 H          5.7597745274       -0.8048680122       -2.9938450863
 C          5.1152551903        0.3769812536       -1.3399502982
 H          6.1035745908        0.6371418431       -0.9556621860
 H          4.8163473834        1.1385764087       -2.0659936524
 H          6.4498789592       -2.6926396240        1.4286980238
 H          4.7696133357       -2.6553414293        1.9780170456
 H          6.4119790071       -0.3398679568        0.8766929221
 H          5.7204864324       -0.5263296270        2.4994947632
 O          3.3832998464        0.0088892412        1.9847997902
 C          2.1367638958        0.5638322434        1.7579793430
 O          1.3724609100        0.5263671561        2.7447237378
 H         -0.8537336329       -0.3743918757        1.3268898970
 C         -0.9984310546       -0.3165032441        0.2553648312
 C         -0.3773953918        0.7045759185       -0.4530987033
 C         -0.5534010491        0.7632496441       -1.8296054915
 C         -1.3322305619       -0.1816446480       -2.4757095062
 C         -1.9594264314       -1.1899191620       -1.7660842539
 C         -1.7866249026       -1.2567056006       -0.3896561846
 N         -2.4729955661       -2.2503509475        0.3439068749
 S         -4.1463185490       -2.1258573083        0.2419774265
 O         -4.6604909875       -2.7222444944        1.4545460945
 O         -4.5902916265       -2.7203222091       -0.9932014971
 C         -4.4437193087       -0.3667232863        0.2144550062
 C         -4.2417827284        0.3451725608        1.3801939733
 C         -4.3627240998        1.7248678864        1.3528032233
 C         -4.6729307244        2.3662814010        0.1632471631
 C         -4.8776641136        1.6367402665       -0.9973898076
 C         -4.7596785083        0.2564085017       -0.9756086859
 H         -4.9068708231       -0.3479431193       -1.8553164016
 H         -5.1200268549        2.1389977671       -1.9197712144
 H         -4.7557446660        3.4416257614        0.1421262646
 H         -4.2055547529        2.2939703170        2.2553435013
 H         -4.0024158871       -0.1867574917        2.2874983280
 H         -2.1934626620       -2.2828480828        1.3145362107
 H         -2.5861361301       -1.9214982812       -2.2502787950
 H         -1.4571514607       -0.1286162421       -3.5463671030
 H         -0.0626037933        1.5384687254       -2.3940254444
 C          0.4675298787        1.6913917041        0.3149846695
 H          0.0456104358        1.7683690160        1.3261581436
 C          0.4846057639        3.0727889553       -0.3041830693
 C         -0.7745463854        3.8849297799       -0.2727668834
 C          0.3898302555        4.2729302437        0.5868315327
 H          0.9556816283        5.1540353871        0.3235881905
 H          0.3204086856        4.1029065450        1.6515531955
 H         -1.0116227701        4.5019217747       -1.1254291344
 H         -1.6358785535        3.4429497102        0.2058005453
 H          1.1204493335        3.1508754516       -1.1759250598
 O          2.5647623578        1.4640836316       -1.7277523762
