  62
        -98.93832536
 C          1.1293785014        1.3605769298        0.5388760992
 C          1.8348275410        1.1849340490       -0.6757810610
 C          3.0333470208        0.3292555588       -0.6030172810
 C          3.3618281811       -0.2506897907        0.5660067492
 C          4.6143655210       -1.0423148908        0.8124070191
 C          4.4502941206       -2.5471029009        0.5682562099
 C          3.8222623100       -2.9010394714       -0.7785485897
 H          3.8352013898       -3.9895624915       -0.8661021892
 H          2.7758736201       -2.5954532112       -0.7769217995
 C          4.5205408797       -2.2840478722       -1.9970424003
 H          5.5399063399       -1.9957099523       -1.7379773108
 H          4.5885258993       -3.0437917226       -2.7786554899
 C          3.7923910798       -1.0846419923       -2.6092940606
 H          2.7364534897       -1.3294221222       -2.7512618301
 H          4.2174396494       -0.9050071829       -3.6005839908
 C          3.8899145903        0.2365080180       -1.8351716413
 H          4.9357090105        0.4355123479       -1.5876479217
 H          3.5399976103        1.0344509678       -2.4971259315
 H          5.4369636205       -3.0088092311        0.6412251398
 H          3.8251954308       -2.9659946604        1.3597012503
 H          5.4021428909       -0.6506322613        0.1703872886
 H          4.9033790914       -0.8879104604        1.8539575889
 O          2.5894593815       -0.1529232500        1.6783477494
 C          1.4734789617        0.6657934003        1.7015087294
 O          0.8834282821        0.6987074409        2.7983109196
 H         -1.9126259684        0.6599645608        1.2942997606
 C         -2.1125995187        1.1435945304        0.3486088405
 C         -1.1986199087        2.0640780999       -0.1542282503
 C         -1.4740804590        2.6744558494       -1.3715601605
 C         -2.6428445093        2.3881458593       -2.0551412999
 C         -3.5599325793        1.4907075698       -1.5387829292
 C         -3.2867801290        0.8600941303       -0.3326837389
 N         -4.1874543790       -0.0898489092        0.2276146618
 S         -3.8751624095       -1.6639265595       -0.2768037775
 O         -3.8481226901       -1.7351943903       -1.7236886675
 O         -4.8700379095       -2.4920419290        0.3654026633
 C         -2.2573851893       -1.9922525296        0.3692543721
 C         -2.1193961590       -2.5214748690        1.6362513523
 C         -0.8443266189       -2.7386266590        2.1333498019
 C          0.2617946809       -2.4111915396        1.3648316414
 C          0.1024764906       -1.8708074402        0.0985306212
 C         -1.1671538896       -1.6627311202       -0.4101576585
 H         -1.3237129798       -1.2492654206       -1.3938486686
 H          0.9594390104       -1.5883383507       -0.4929495793
 H          1.2544146510       -2.5638453596        1.7587923111
 H         -0.7128131286       -3.1513606986        3.1205493921
 H         -3.0064816188       -2.7567295385        2.2014061927
 H         -5.1546304990        0.1198318209        0.0139390621
 H         -4.4757845695        1.2668661497       -2.0655043687
 H         -2.8435410395        2.8737279489       -2.9981749601
 H         -0.7675617390        3.3710915091       -1.7904742011
 C          0.0214056617        2.3934213701        0.6704918191
 H         -0.2832945079        2.3546668007        1.7251962192
 C          0.5716563019        3.7776162798        0.3809036782
 C         -0.1813727377        4.9842754802        0.8508508379
 C          1.1078648525        4.6003971903        1.5115626076
 H          1.9807217425        5.2112076800        1.3354832270
 H          1.0686044328        4.1727113008        2.5028834278
 H         -0.1954393977        5.8618007899        0.2227817675
 H         -1.0990162975        4.8172367607        1.3942642683
 H          1.0952608516        3.8422536893       -0.5649758720
 O          1.5185250507        1.7438535586       -1.7577656911
