  62
        -98.93310811
 C         -1.6596766303       -1.0680173910        0.5131393905
 C         -2.0261752203        0.2997831790        0.4320538908
 C         -3.4248723003        0.6075416991        0.0838948709
 C         -4.2693431003       -0.4090726309       -0.1645356393
 C         -5.7316832503       -0.3594658308       -0.5282351393
 C         -6.1438852804        0.6827697294       -1.5792103790
 C         -6.9627211503        1.8381676693       -1.0010991488
 H         -7.5615177004        2.2771216495       -1.8023456386
 H         -7.6563818203        1.4357173892       -0.2598850588
 C         -6.1433950503        2.9618650492       -0.3687408685
 H         -6.8422330503        3.6430469491        0.1225487616
 H         -5.6383344803        3.5267138194       -1.1552745884
 C         -5.0953345403        2.5143707190        0.6524225813
 H         -4.8837741903        3.3633829788        1.3059024115
 H         -5.4915692503        1.7194512488        1.2831651212
 C         -3.7677817203        2.0709462291        0.0194573112
 H         -3.7250416203        2.3964714793       -1.0239832187
 H         -2.9348520703        2.5705968390        0.5236205213
 H         -5.2605757004        1.0624449395       -2.0904980190
 H         -6.7571506004        0.1768142196       -2.3266939591
 H         -6.3115212003       -0.2131732710        0.3864914208
 H         -5.9677670503       -1.3634661507       -0.8881532195
 O         -3.8730411403       -1.7097489009       -0.0878323696
 C         -2.5809327403       -2.0797230109        0.2459626103
 O         -2.4107325003       -3.3151441909        0.2600002700
 O         -1.2120260303        1.2360221690        0.6555401909
 C         -0.2222149103       -1.3593234211        0.9027017504
 C          0.6592226897       -1.6380572208       -0.2915047997
 C          0.3858183197       -2.6736304406       -1.1784941299
 C          1.2375434796       -2.9261478504       -2.2382246800
 C          2.3854872496       -2.1740828404       -2.4180806899
 C          2.6697928596       -1.1399320806       -1.5345845497
 C          1.7964589997       -0.8693231808       -0.4906290396
 H          2.0118705697       -0.0522065609        0.1803065706
 N          3.8215682796       -0.3561088505       -1.6861724796
 S          4.6714161097        0.1534839992       -0.3359028995
 O          6.0084869297        0.4095714693       -0.8269828095
 O          4.5616249097       -0.7924495410        0.7493627903
 C          3.9142890597        1.7014485991        0.1076667109
 C          3.8197236397        2.6835260893       -0.8581799989
 C          3.2441772997        3.8980458692       -0.5225564286
 C          2.7774727997        4.1096570390        0.7660185114
 C          2.8845833597        3.1155909188        1.7259082812
 C          3.4595179497        1.8986859088        1.3960256509
 H          3.5579984598        1.0969139087        2.1115023208
 H          2.5186789798        3.2807017985        2.7267075512
 H          2.3259725797        5.0543075689        1.0250452416
 H          3.1584881296        4.6748694394       -1.2652339485
 H          4.1968160296        2.4828376095       -1.8471172690
 H          4.4361599696       -0.6410407104       -2.4346934696
 H          3.0571500996       -2.3856366102       -3.2363761200
 H          1.0133512996       -3.7291124303       -2.9243810802
 H         -0.4969888203       -3.2757828307       -1.0282035000
 H          0.1415550197       -0.4314130112        1.3649080105
 C         -0.0741877002       -2.4837688913        1.9115512101
 C          1.2320068898       -2.6375813414        2.6301262700
 C          0.0203018798       -2.1577733316        3.3702552702
 H         -0.4487921702       -2.8243770917        4.0783683801
 H         -0.0253110402       -1.1165014517        3.6542050504
 H          1.5927859798       -3.6353756115        2.8285833198
 H          2.0176883698       -1.9307309814        2.4052548102
 H         -0.6030036703       -3.3851851412        1.6308867099
