  62
        -98.94485545
 C         -1.9175099846       -0.2863405043        0.0546926298
 C         -2.9804716674       -0.5147439812        0.9652863547
 C         -4.2057290179        0.2613870767        0.7387085160
 C         -4.2400770783        1.1550297477       -0.2665486305
 C         -5.4376338677        1.9779096751       -0.6413942746
 C         -6.2961581253        1.2612128042       -1.6931849736
 C         -6.6160394188       -0.1922879323       -1.3437584628
 H         -7.2503349378       -0.5859681131       -2.1409299070
 H         -5.6908281888       -0.7729359008       -1.3529713232
 C         -7.3183093023       -0.3804259432        0.0082590338
 H         -8.1434703383       -1.0839923925       -0.1209281457
 H         -7.7488261939        0.5661565485        0.3370833216
 C         -6.4238316701       -0.9418683283        1.1150961135
 H         -5.9190025399       -1.8423283643        0.7564249932
 H         -7.0630662715       -1.2364055315        1.9516165956
 C         -5.3625056928        0.0183758155        1.6667951295
 H         -5.8324055528        0.9616902147        1.9524283052
 H         -4.9355064959       -0.4381680787        2.5644734429
 H         -7.2251764745        1.8201893679       -1.8191839011
 H         -5.7599591211        1.2746079738       -2.6449568408
 H         -6.0284857070        2.1776917079        0.2504330991
 H         -5.0882660537        2.9257878414       -1.0543836231
 O         -3.1885873979        1.3767412913       -1.0941851276
 C         -2.0058201251        0.6619484056       -0.9644922210
 O         -1.1399422164        0.9637477130       -1.8081160823
 O         -2.9066676271       -1.3326895031        1.9203328926
 C         -0.6350849858       -1.0786359004        0.2501012520
 C          0.4357855843       -0.1460650607        0.7574711652
 C          0.5092232135        0.1365227800        2.1183254780
 C          1.4637489391        1.0075887261        2.6104097389
 C          2.3619433759        1.6211340174        1.7541643858
 C          2.2884116079        1.3532902552        0.3943450475
 C          1.3402401544        0.4663804738       -0.0966464550
 H          1.2871289667        0.2787137817       -1.1573900144
 N          3.2077083860        1.9722846857       -0.4827115889
 S          4.8041216815        1.5029986674       -0.2856170097
 O          5.2968878296        2.0316612266        0.9607330804
 O          5.4938279865        1.9314271533       -1.4811810722
 C          4.7314160320       -0.2773065956       -0.2109585244
 C          4.5428897456       -0.8943322497        1.0094093019
 C          4.3912877954       -2.2711439513        1.0455183129
 C          4.4301010852       -3.0026248539       -0.1313256121
 C          4.6245966206       -2.3678700889       -1.3485310643
 C          4.7693877755       -0.9908520820       -1.3922181497
 H          4.9242652544       -0.4583601223       -2.3170936361
 H          4.6591627385       -2.9402382808       -2.2617711836
 H          4.3080242311       -4.0738866551       -0.1003868362
 H          4.2394979669       -2.7669347340        1.9908140409
 H          4.5234043229       -0.2917261675        1.9024182303
 H          2.9434316143        1.8750076059       -1.4532922277
 H          3.1210566781        2.2951899037        2.1172108930
 H          1.5092768587        1.2132178164        3.6691810929
 H         -0.2003697881       -0.3316436916        2.7860276072
 H         -0.8616904081       -1.7979193083        1.0483738229
 C         -0.2265198489       -1.8409900153       -0.9934893351
 C          0.8604314839       -2.8679504689       -0.8911107614
 C         -0.5589406083       -3.2972842284       -1.1062562773
 H         -0.8404971873       -3.6867850015       -2.0731409807
 H         -1.0855012698       -3.7553977001       -0.2819967541
 H          1.5588607490       -2.9631526860       -1.7080301382
 H          1.3001248109       -3.0282024161        0.0814783365
 H         -0.2822262078       -1.2501938226       -1.8994532243
