  62
        -98.93936237
 C         -2.1205412613       -0.3799920928       -1.0366396873
 C         -2.9344548396        0.7701093195       -0.8823863950
 C         -4.3438450473        0.5153883777       -0.5389364286
 C         -4.7775711995       -0.7491556706       -0.3973568359
 C         -6.1686650434       -1.1417753341        0.0062378180
 C         -6.2845421270       -1.2893875533        1.5298212209
 C         -5.7133217805       -0.1053573340        2.3100747991
 H         -5.8783977240       -0.3056415828        3.3709816250
 H         -4.6325508057       -0.0655149904        2.1554795509
 C         -6.3287558953        1.2524879540        1.9438460689
 H         -7.2775967181        1.1018414910        1.4276866881
 H         -6.5441369188        1.7986206362        2.8646806500
 C         -5.4265319225        2.1495740696        1.0945101131
 H         -4.4422428488        2.2263493961        1.5629116242
 H         -5.8613751798        3.1524817342        1.0802124211
 C         -5.2339487951        1.7139639915       -0.3636033077
 H         -6.2068614425        1.5425595166       -0.8283944394
 H         -4.7392471842        2.5340991467       -0.8920909693
 H         -7.3376613631       -1.4219991898        1.7845219773
 H         -5.7456700251       -2.1904982381        1.8319936930
 H         -6.8707454105       -0.3909635101       -0.3511841970
 H         -6.4048368395       -2.0989871163       -0.4617790201
 O         -3.9702034507       -1.8286179827       -0.5626346393
 C         -2.6314213661       -1.6707965638       -0.8743165215
 O         -2.0047915994       -2.7440672375       -0.9903026717
 H          1.5590529495       -1.7355917718       -0.7175366707
 C          1.3129992444       -0.9872886924        0.0204814106
 C          0.2084986624       -0.1669146336       -0.1561812518
 C         -0.0827520793        0.7826593925        0.8193795125
 C          0.7091517423        0.8971744050        1.9467107377
 C          1.8185866045        0.0857905206        2.1126340998
 C          2.1234232267       -0.8585434920        1.1408028874
 N          3.2570263937       -1.6889787826        1.2628005442
 S          4.4571459148       -1.5097376532        0.1073325268
 O          3.9217975072       -1.7991446003       -1.1969265149
 O          5.5517723045       -2.3370845189        0.5604096381
 C          4.9113074480        0.2121178574        0.2217806340
 C          5.9657464579        0.5754212791        1.0367446466
 C          6.2680105579        1.9198401259        1.1821122578
 C          5.5071806903        2.8735608918        0.5226334600
 C          4.4497311611        2.4928861188       -0.2893642754
 C          4.1459083525        1.1494674457       -0.4427953657
 H          3.3347363163        0.8180397675       -1.0696929351
 H          3.8570002663        3.2325635688       -0.8034572499
 H          5.7397168967        3.9201813451        0.6399699656
 H          7.0918679795        2.2192738522        1.8097500280
 H          6.5323366127       -0.1999406895        1.5267736092
 H          3.6755161532       -1.6687243992        2.1827856087
 H          2.4414453835        0.1794450053        2.9895746307
 H          0.4677523368        1.6333737751        2.6981940817
 H         -0.9302976012        1.4350598171        0.6765988459
 C         -0.6447091219       -0.3097089529       -1.3913348860
 H         -0.4095798814       -1.2892050561       -1.8376327995
 C         -0.3331659138        0.7531288957       -2.4392254958
 C          0.5636488486        1.9224231798       -2.1767109364
 C          1.0351628777        0.8027184644       -3.0524688570
 H          1.1192886718        0.9743151224       -4.1151141370
 H          1.7780869219        0.1201557906       -2.6633723752
 H          0.9938351222        2.0233788748       -1.1924788715
 H          0.3025933844        2.8632689819       -2.6364507019
 H         -1.1702312546        0.9272390802       -3.1063538318
 O         -2.5275807131        1.9519527442       -1.0166441637
