  62
        -98.92439411
 C         -2.3837833003       -1.2916787160       -0.1481028370
 C         -2.0671711189        0.0867838649       -0.1937952578
 C         -3.1165359589        1.0284180001        0.2622315505
 C         -4.2924916693        0.5401999805        0.6952834107
 C         -5.5094616651        1.2913666871        1.1684665371
 C         -6.3020569149        1.9272754315        0.0165076108
 C         -5.4512456537        2.6609154450       -1.0161334103
 H         -4.7361475731        1.9619314451       -1.4534515444
 H         -6.1151947903        2.9912489205       -1.8192597145
 C         -4.7063264931        3.8862155175       -0.4914519885
 H         -4.2421336004        4.3752186459       -1.3516773592
 H         -5.4250311136        4.5860496057       -0.0596351599
 C         -3.6098988919        3.6119532688        0.5414536856
 H         -2.9936186202        4.5131561256        0.6102717072
 H         -4.0285890118        3.4493385567        1.5310521819
 C         -2.6685217385        2.4677895322        0.1782577815
 H         -2.3002280564        2.6144896365       -0.8439869604
 H         -1.7740932666        2.5318899257        0.8108584856
 H         -7.0354288846        2.6143402411        0.4420206060
 H         -6.8439654329        1.1321905118       -0.5012766362
 H         -6.1493988428        0.5613166673        1.6690230827
 H         -5.2257327268        2.0407324259        1.9012834396
 O         -4.5500987852       -0.7993268429        0.7258393103
 C         -3.6230686933       -1.7348651975        0.3201353782
 O         -4.0127984445       -2.9169661490        0.4207774829
 H          1.0287258823       -0.9663234929       -0.8144870128
 C          0.9578185881       -1.5904461479        0.0561158725
 C         -0.1808412710       -2.3404044525        0.3119596299
 C         -0.2288947183       -3.0812229604        1.4933114482
 C          0.8236878506       -3.0721064081        2.3871862203
 C          1.9571384281       -2.3246393029        2.1230617559
 C          2.0217738416       -1.5829484036        0.9498588550
 N          3.1910288462       -0.8625848011        0.6414607616
 S          3.1130678179        0.6604925990       -0.0853992596
 O          2.3736681286        1.5783029221        0.7527554289
 O          2.6873223725        0.5181189424       -1.4523012921
 C          4.8490554318        1.0739583015       -0.0509502803
 C          5.3347008314        1.9239863345        0.9240097139
 C          6.6907689974        2.2106847900        0.9503553061
 C          7.5344331085        1.6430763752        0.0077107085
 C          7.0325590242        0.7921485794       -0.9660086198
 C          5.6777902349        0.5030596517       -0.9981188246
 H          5.2407490260       -0.1442875173       -1.7403186992
 H          7.6910212614        0.3547754453       -1.6990715471
 H          8.5891535560        1.8674647020        0.0301540237
 H          7.0828777837        2.8745377510        1.7039621554
 H          4.6398284875        2.3486299145        1.6307798105
 H          3.8233916020       -0.8201385005        1.4304974347
 H          2.7838545015       -2.3153753610        2.8174871949
 H          0.7613803807       -3.6496166137        3.2971896263
 H         -1.1172429845       -3.6591420247        1.7090774494
 C         -1.4052792035       -2.3832591994       -0.5693517306
 H         -1.9292955817       -3.3171330539       -0.3106401518
 C         -1.2348892127       -2.4477357016       -2.0822751526
 C         -0.4892863792       -1.4813833136       -2.9511423278
 C          0.0320239576       -2.8736740414       -2.7616078583
 H         -0.0377054124       -3.5646054333       -3.5886548397
 H          0.9110749142       -3.0034560447       -2.1495604602
 H         -0.9386177355       -1.2310331965       -3.9026928606
 H          0.0245706363       -0.6491409936       -2.4989836433
 H         -2.1542570997       -2.8268064753       -2.5247046305
 O         -0.9685735878        0.5451391924       -0.5978644880
