  62
        -98.93666310
 C          1.8803351524        0.8632762687        0.6798384375
 C          2.3128576833        0.3955508962       -0.5836107001
 C          3.7676092637        0.4133657500       -0.8174896225
 C          4.5858056351        0.8900626261        0.1363301552
 C          6.0862269216        1.0381714923        0.0935251164
 C          6.8954710816       -0.1353225475       -0.4772687317
 C          6.2850703765       -1.5240575651       -0.2383074418
 H          7.0488152278       -2.1784523219        0.1862852526
 H          5.4738926164       -1.4573502289        0.4888259215
 C          5.7681417510       -2.1783091803       -1.5220296819
 H          5.6970798900       -3.2568719617       -1.3616855401
 H          6.4997479402       -2.0140957222       -2.3162538636
 C          4.3966767209       -1.7010257421       -1.9990047596
 H          4.2056295807       -2.1518725730       -2.9757892821
 H          3.6195123151       -2.0662187249       -1.3217585033
 C          4.2294939836       -0.1772874708       -2.1183033281
 H          5.1423205244        0.2935021517       -2.4749230823
 H          3.4302425128        0.0167966984       -2.8384394515
 H          7.8845966832       -0.0891658349       -0.0184862139
 H          7.0396300337        0.0078415403       -1.5472571499
 H          6.3233193755        1.9443893152       -0.4711285462
 H          6.3830323016        1.2178764992        1.1295906414
 O          4.1200481102        1.3592401347        1.3294060965
 C          2.7707479376        1.3433599393        1.6374568002
 O          2.4959564944        1.7736218431        2.7768415326
 H         -2.1030380837        0.1084950885        0.1846171672
 C         -1.4829420570       -0.7315107288        0.4508848478
 C         -0.1819679209       -0.5296327050        0.8873431255
 C          0.5787947489       -1.6405692956        1.2412252679
 C          0.0630648967       -2.9169054340        1.1303973035
 C         -1.2348035585       -3.1132401114        0.6930580678
 C         -2.0125450919       -2.0118120703        0.3612765524
 N         -3.3350664946       -2.1723024403       -0.0801953610
 S         -4.5265914153       -1.1608126100        0.5204941258
 O         -4.2297440438       -0.7296216685        1.8665030560
 O         -5.7580261169       -1.9031722039        0.3492785030
 C         -4.5499387379        0.2355549847       -0.5832079883
 C         -4.8225858075        1.4868921465       -0.0673953905
 C         -4.8976805400        2.5680845996       -0.9320117999
 C         -4.6991318844        2.3792677719       -2.2909202319
 C         -4.4265839379        1.1155474087       -2.7929101500
 C         -4.3556847409        0.0298122561       -1.9347756263
 H         -4.1444713470       -0.9643945491       -2.2913224544
 H         -4.2694546239        0.9732509946       -3.8500147547
 H         -4.7552922687        3.2220568285       -2.9618087972
 H         -5.1086463127        3.5512301846       -0.5418897659
 H         -4.9572700793        1.5914248293        0.9973267550
 H         -3.6528024341       -3.1299342894       -0.1223696177
 H         -1.6417171912       -4.1098070723        0.6111690034
 H          0.6731645572       -3.7674337310        1.3958737289
 H          1.5889963048       -1.4911772682        1.5982785165
 C          0.4034171779        0.8558919680        1.0224837283
 H          0.3331785198        1.1485450813        2.0813870819
 C         -0.3207214331        1.8906796032        0.1837442201
 C         -1.4957773099        2.6377786021        0.7366637822
 C         -0.1835355642        3.3367880163        0.5508319443
 H         -0.0933220330        4.0645338133       -0.2413015897
 H          0.4040671247        3.5693626433        1.4273655890
 H         -2.3060941123        2.8863627270        0.0678859442
 H         -1.8107667125        2.4037468542        1.7428914214
 H         -0.3240027700        1.6382338841       -0.8704836798
 O          1.5266794554       -0.0145428467       -1.4755505001
