  62
        -98.94450528
 C         -2.6525565766       -1.2858545230        0.1170363771
 C         -2.5595972594       -0.2908499606       -0.8862702035
 C         -3.5180872172        0.8196898563       -0.7784673622
 C         -4.4146100347        0.8276501943        0.2242730664
 C         -5.4079348586        1.9225152760        0.4815846998
 C         -4.8348311226        2.9775156640        1.4381011842
 C         -3.4404470216        3.4711594725        1.0512127802
 H         -3.1527193275        4.2352717322        1.7765883683
 H         -2.7265181581        2.6499704093        1.1526140916
 C         -3.3427046681        4.0517518913       -0.3664405713
 H         -2.7663135333        4.9784030846       -0.3260714756
 H         -4.3383068720        4.3042114606       -0.7333934864
 C         -2.6461693004        3.1408908284       -1.3795231555
 H         -1.6834686355        2.8116752863       -0.9775316956
 H         -2.4376283684        3.7290043646       -2.2776438929
 C         -3.4384673387        1.9023601697       -1.8176029617
 H         -4.4374359037        2.2010016537       -2.1419840725
 H         -2.9167196443        1.4611372979       -2.6720333960
 H         -5.5243391110        3.8228391369        1.4727241821
 H         -4.7776326725        2.5433415794        2.4388137269
 H         -5.6839937236        2.3853692939       -0.4637273443
 H         -6.2972569567        1.4803611423        0.9336381845
 O         -4.4848459798       -0.1535857031        1.1589834232
 C         -3.5983790802       -1.2156621195        1.1434891565
 O         -3.7545134014       -2.0266677639        2.0776763906
 H          0.3681474826       -1.7065704605       -1.4865577775
 C          0.6002365085       -1.5701945003       -0.4423737370
 C         -0.3271080446       -1.9302852736        0.5224582983
 C         -0.0162578199       -1.7097614019        1.8615016125
 C          1.1942744969       -1.1480773961        2.2212595481
 C          2.1144890396       -0.7815353190        1.2539713826
 C          1.8054085887       -0.9801434884       -0.0842380249
 N          2.7243403935       -0.5912388988       -1.0751139373
 S          3.3684969029        0.9572082901       -0.9752678214
 O          2.4789371129        1.8674093978       -0.2915522092
 O          3.7326431166        1.3064698443       -2.3312724509
 C          4.8569638778        0.7255428286       -0.0236899318
 C          5.0778318539        1.4845820780        1.1087157581
 C          6.2462319722        1.2900486853        1.8291589758
 C          7.1687295714        0.3456260872        1.4059685960
 C          6.9337746428       -0.4061840400        0.2642860924
 C          5.7684458109       -0.2157201489       -0.4607317811
 H          5.5493698730       -0.7760808258       -1.3541315276
 H          7.6537110897       -1.1393377576       -0.0619472275
 H          8.0761174670        0.1949462211        1.9692075528
 H          6.4304799616        1.8744245395        2.7163561324
 H          4.3291664801        2.2030475122        1.4030577994
 H          2.3949664769       -0.7727009294       -2.0129803854
 H          3.0544848655       -0.3299838980        1.5261304459
 H          1.4232421538       -0.9879951833        3.2639726687
 H         -0.7464190412       -1.9707571619        2.6152635250
 C         -1.6914294793       -2.4648093822        0.1609380041
 H         -2.0366577612       -3.1019681992        0.9856786347
 C         -1.7166391571       -3.2729539924       -1.1193129499
 C         -1.1034685797       -4.6400669450       -1.1304919855
 C         -2.5922969157       -4.4855636433       -1.1997702082
 H         -3.0913021930       -4.6981969607       -2.1333874002
 H         -3.1751599266       -4.7396387310       -0.3264388101
 H         -0.6740232494       -4.9989943329       -0.2074311778
 H         -0.5783261198       -4.9634656739       -2.0161563323
 H         -1.6298633392       -2.6693639802       -2.0138335155
 O         -1.7304465904       -0.3181210233       -1.8345718016
