  62
        -98.94626253
 C         -2.3900103433       -0.5207276112       -0.0117743065
 C         -1.3967018955       -0.7220660150        0.9740285982
 C         -0.7118171116       -2.0201525506        0.9499761813
 C         -1.0538551680       -2.9230350335        0.0132862435
 C         -0.3534963126       -4.2295482147       -0.2280033326
 C          0.9531875010       -3.9724542532       -1.0075994907
 C          2.2283946086       -4.3100384957       -0.2340849126
 H          2.3530987452       -5.3951654602       -0.2087548368
 H          3.0654349442       -3.8920197087       -0.7980151197
 C          2.2908768299       -3.7937552232        1.2067577598
 H          1.7232360273       -4.4598129980        1.8587533476
 H          3.3338636989       -3.8595337075        1.5235349339
 C          1.7998810612       -2.3561165066        1.4211898753
 H          1.8671343073       -1.7857175372        0.4936334918
 H          2.4616326021       -1.8709195975        2.1422172577
 C          0.3650283465       -2.2499550570        1.9733357744
 H          0.1293028859       -3.1408392887        2.5619324198
 H          0.3097849952       -1.3860149850        2.6417271180
 H          0.9479497944       -4.5565430573       -1.9298332797
 H          0.9770807352       -2.9208184487       -1.3049295748
 H         -0.1453345176       -4.7207250784        0.7200121931
 H         -1.0255662435       -4.8603308552       -0.8105822781
 O         -2.0394978980       -2.7084592546       -0.8968419864
 C         -2.7080821719       -1.4963298486       -0.9532847069
 O         -3.5531101119       -1.4125962367       -1.8695826507
 H         -0.8695405543        0.6735550131       -1.6351901580
 C         -0.9105285145        1.6160315261       -1.1085553670
 C         -1.9903706423        1.8960045161       -0.2804495837
 C         -2.0253247270        3.1246845738        0.3666727216
 C         -0.9870602421        4.0278082054        0.2124035532
 C          0.1146636507        3.7176796682       -0.5640388080
 C          0.1522983045        2.4958687928       -1.2262223731
 N          1.2565973744        2.1176399835       -2.0176815187
 S          2.1065610057        0.7423756805       -1.5744045484
 O          3.1810013074        0.6436299464       -2.5394422896
 O          1.2184211060       -0.3885186498       -1.4973632340
 C          2.7955815218        1.1312369422        0.0250512984
 C          1.9743635706        1.1541298647        1.1343901215
 C          2.5202811866        1.5129861702        2.3576936947
 C          3.8635116533        1.8412709569        2.4520028813
 C          4.6736728301        1.8146247775        1.3266182497
 C          4.1354731120        1.4613047024        0.1002077416
 H          4.7251541924        1.4240589207       -0.8015367196
 H          5.7188512394        2.0686212919        1.4003787104
 H          4.2800198178        2.1181029768        3.4076957033
 H          1.8818032076        1.5303552235        3.2265036101
 H          0.9326689911        0.8874611773        1.0488506077
 H          1.9137240825        2.8676894024       -2.1840387281
 H          0.9382951154        4.4093625657       -0.6580818050
 H         -1.0267965456        4.9779435454        0.7227884514
 H         -2.8617555989        3.3715690651        0.9999477396
 C         -3.0581497305        0.8379084196       -0.1280808146
 H         -3.6558534207        0.8088952115       -1.0512040213
 C         -3.9817599723        1.0814503484        1.0475351557
 C         -5.2098794201        1.9245846524        0.8845530001
 C         -5.3356503211        0.4401795597        1.0454349378
 H         -5.7235655637        0.0503146845        1.9744412144
 H         -5.6000304718       -0.1509518797        0.1803736263
 H         -5.5167839424        2.5538001122        1.7063814689
 H         -5.4033922337        2.3444627457       -0.0910428719
 H         -3.4494608914        1.1240468000        1.9907081687
 O         -1.0846332143        0.1533898600        1.8253390890
