  62
        -98.93558796
 C         -2.1831859344       -1.1104161182       -0.0688482189
 C         -2.8664144223       -0.4922943197        1.0086813449
 C         -3.6815542604        0.6947091648        0.7004925643
 C         -3.7328225403        1.1444113042       -0.5667637682
 C         -4.4277906026        2.3448046488       -1.1749012606
 C         -5.4944355671        3.1071280783       -0.3933537230
 C         -6.7857001116        2.3270973416       -0.1482455124
 H         -7.4278824833        2.9252506510        0.5016806900
 H         -7.3019499952        2.2027587845       -1.1034805524
 C         -6.6114003533        0.9399240912        0.4648602326
 H         -7.6044993326        0.4958206448        0.5738045657
 H         -6.0483236179        0.3038786085       -0.2212082470
 C         -5.9371419085        0.9103211707        1.8350337102
 H         -6.4693441621        1.5718208548        2.5212090441
 H         -6.0203263715       -0.1092349584        2.2207430889
 C         -4.4457972780        1.2883565028        1.8487389104
 H         -4.0001820104        0.8747208896        2.7580828074
 H         -4.3102800654        2.3668988963        1.8822567992
 H         -5.0840165616        3.4721760746        0.5435106140
 H         -5.7483533745        3.9868422125       -0.9910466411
 H         -3.6273110767        3.0441259526       -1.4419987143
 H         -4.8569823409        1.9944098968       -2.1191285510
 O         -3.0448336374        0.5279581356       -1.5706957020
 C         -2.2607906316       -0.5978589861       -1.3621510562
 O         -1.7107719392       -1.0154821013       -2.3995194953
 O         -2.7982157563       -0.9203756434        2.1918216087
 C         -1.3494842202       -2.3361894777        0.2652121236
 C          0.0808120587       -1.9374285265        0.5242757981
 C          0.7106800433       -2.2484184457        1.7229187764
 C          2.0119504836       -1.8399512386        1.9609543411
 C          2.7094771239       -1.1156468572        1.0109969340
 C          2.0868493657       -0.7962354651       -0.1887682159
 C          0.7849702214       -1.2089325545       -0.4256136435
 H          0.3035970572       -0.9536491483       -1.3587720653
 N          2.7876572784       -0.0523996152       -1.1612097767
 S          3.2989333860        1.4779195517       -0.6820010801
 O          2.4309354135        2.0292777337        0.3344382365
 O          3.4262442604        2.2434484977       -1.9030804155
 C          4.9207941016        1.1830171201       -0.0093566945
 C          5.2094374232        1.5610022559        1.2872007440
 C          6.4805107095        1.3221915878        1.7867656432
 C          7.4341663414        0.7137168524        0.9851191032
 C          7.1285262045        0.3423293822       -0.3159804989
 C          5.8604973600        0.5791436280       -0.8220584365
 H          5.5814404747        0.3096231795       -1.8269707123
 H          7.8728050859       -0.1306283537       -0.9360613975
 H          8.4216983525        0.5278201918        1.3768244937
 H          6.7197834261        1.6100585836        2.7978846600
 H          4.4327127539        2.0240888814        1.8746023683
 H          2.2805402008        0.0196281512       -2.0330842970
 H          3.7216339577       -0.7921527028        1.1914647715
 H          2.4876347100       -2.0858893824        2.8978989149
 H          0.1663210864       -2.7966471361        2.4777325908
 H         -1.7665934859       -2.7026949518        1.2162633706
 C         -1.4923650219       -3.4565461780       -0.7561030539
 C         -0.3773427770       -3.9340717285       -1.6331625904
 C         -0.8486485437       -4.7867597925       -0.4962213890
 H         -1.4065297818       -5.6846078196       -0.7141804459
 H         -0.2052604324       -4.8623340831        0.3674757326
 H         -0.6279515483       -4.2235133124       -2.6424118552
 H          0.5857789095       -3.4566633229       -1.5462467263
 H         -2.4842362993       -3.4749918372       -1.1965667460
