  62
        -98.94965288
 C         -1.6853073759       -1.2208655737        0.3394959965
 C         -1.3292946355       -0.1597682352       -0.5252093741
 C         -1.8865455673        1.1537187950       -0.1903529560
 C         -2.6441373740        1.2950050646        0.9120580647
 C         -3.2515642195        2.5784775902        1.4100397259
 C         -4.5818440338        2.9470884064        0.7383800658
 C         -4.4704509214        3.4335864613       -0.7070927552
 H         -5.4385827325        3.8609054515       -0.9756863047
 H         -3.7333721728        4.2352720637       -0.7620049189
 C         -4.1169617169        2.3351985234       -1.7193123628
 H         -4.3008620225        1.3558758101       -1.2716873166
 H         -4.7713291570        2.4186144009       -2.5898424057
 C         -2.6762704459        2.3830862140       -2.2279440464
 H         -2.5164451894        3.3057066956       -2.7900166676
 H         -2.5253385172        1.5416393379       -2.9084838529
 C         -1.6149362013        2.2948783882       -1.1232002640
 H         -0.6423416971        2.1180309395       -1.5891689211
 H         -1.5646851079        3.2320037694       -0.5686408677
 H         -5.0355674631        3.7430666118        1.3334026595
 H         -5.2454944180        2.0803840348        0.7818868674
 H         -2.5358253104        3.3916426532        1.2830680030
 H         -3.4301603228        2.4416242092        2.4790349432
 O         -2.9376491292        0.2556076286        1.7389634641
 C         -2.4688173381       -1.0209953116        1.4739005836
 O         -2.8115449290       -1.8811164618        2.3129477571
 O         -0.5776417655       -0.3031916126       -1.5256420828
 C         -1.1401913067       -2.6134703540        0.0803041781
 C          0.3662623359       -2.5624559467       -0.0094115011
 C          1.1015627096       -3.2888816224       -0.9380753628
 C          2.4808854957       -3.1793362510       -0.9823065047
 C          3.1523202137       -2.3301080628       -0.1217481154
 C          2.4260636899       -1.6084871581        0.8183070019
 C          1.0505892059       -1.7527127669        0.8881308042
 H          0.5024593974       -1.1863907793        1.6274112972
 N          3.0551368512       -0.7114881883        1.7079559676
 S          2.6487375066        0.9097504981        1.5649927615
 O          3.4794593598        1.5890182327        2.5369169779
 O          1.2262542959        1.0799439296        1.7110413646
 C          3.1852951952        1.3545870553       -0.0778186444
 C          4.4053815091        1.9875295303       -0.2237604298
 C          4.8644251124        2.2777113106       -1.4980183530
 C          4.1035106355        1.9216003798       -2.6016068909
 C          2.8844770530        1.2827391748       -2.4375307512
 C          2.4155726523        0.9922001745       -1.1649216249
 H          1.4668037942        0.4986972013       -1.0189526167
 H          2.2860710215        1.0012459805       -3.2892627740
 H          4.4609520411        2.1431920789       -3.5948542408
 H          5.8116550963        2.7763076626       -1.6263123059
 H          4.9597209820        2.2466751855        0.6638982130
 H          4.0630392829       -0.7946026507        1.7207756764
 H          4.2253280126       -2.2228352374       -0.1744168182
 H          3.0383142878       -3.7485279799       -1.7103344636
 H          0.5927999316       -3.9366467308       -1.6331799727
 H         -1.4152276299       -3.2188690960        0.9568596260
 C         -1.7929949080       -3.2086648282       -1.1512063495
 C         -2.0204060563       -4.6864103015       -1.2518226289
 C         -3.1800219164       -3.7627076496       -1.0344752178
 H         -3.8720332358       -3.5988656278       -1.8468651550
 H         -3.6407342156       -3.7359306189       -0.0572953315
 H         -1.9204311357       -5.1595930176       -2.2170479086
 H         -1.7017925107       -5.2997124682       -0.4224983157
 H         -1.5464198607       -2.6633584582       -2.0550894547
