  62
        -98.94091234
 C         -2.3871364132       -1.2607411715        0.1362676832
 C         -2.2711601494        0.1480381749        0.0226363231
 C         -3.3849206584        0.9262691102        0.5873888462
 C         -4.4037885194        0.3023157797        1.2033209521
 C         -5.5970122701        0.9614853883        1.8400091005
 C         -6.7234461020        1.2990915154        0.8536495273
 C         -6.4360149158        2.4705300989       -0.0863840504
 H         -7.3802017070        2.7348275212       -0.5666519347
 H         -6.1151047820        3.3336499379        0.4977119224
 C         -5.3969041260        2.1692837028       -1.1754104441
 H         -5.7613294078        2.5348022095       -2.1381000082
 H         -5.2719018039        1.0881772592       -1.2707379702
 C         -4.0275636154        2.8068580038       -0.9386536017
 H         -4.1188111465        3.8948685246       -0.9713062699
 H         -3.3613278619        2.5025831102       -1.7503545274
 C         -3.3674882081        2.4120879412        0.3892346588
 H         -2.3223878133        2.7319689546        0.3632189226
 H         -3.8646589962        2.9130422712        1.2197003357
 H         -7.6098012127        1.5438938998        1.4433208658
 H         -6.9517654735        0.4073426954        0.2653109050
 H         -5.2817343434        1.8672104758        2.3588430069
 H         -5.9849427468        0.2552593953        2.5772473812
 O         -4.4527494768       -1.0492744913        1.3382993370
 C         -3.4616935014       -1.8562113727        0.8054505688
 O         -3.6440846858       -3.0749303658        0.9973189886
 O         -1.3073321891        0.7462523420       -0.5219946855
 C         -1.3316547080       -2.2154226071       -0.3994903596
 C          0.0341431488       -1.7766222152        0.0645750923
 C          0.4259828748       -2.0446805504        1.3725485900
 C          1.6548193036       -1.6195388708        1.8410695235
 C          2.5130509711       -0.9100684589        1.0190229763
 C          2.1210712064       -0.6185426894       -0.2802199529
 C          0.8963045413       -1.0689835640       -0.7564214471
 H          0.5946844728       -0.8255173630       -1.7632312779
 N          2.9778109749        0.1071043562       -1.1227879012
 S          3.8302069119        1.4145213882       -0.5112333780
 O          3.1377608325        2.0651786113        0.5763831710
 O          4.1320490733        2.2345860457       -1.6647687472
 C          5.3430410370        0.6809479027        0.0806079875
 C          6.0518677638       -0.1365052586       -0.7779218281
 C          7.2351550420       -0.7061911151       -0.3360633439
 C          7.6900058389       -0.4478530499        0.9484579691
 C          6.9697235244        0.3785372146        1.7970357186
 C          5.7845546786        0.9505892363        1.3610990393
 H          5.1887604564        1.5949897070        1.9882348306
 H          7.3247958912        0.5794299408        2.7950989932
 H          8.6111314834       -0.8928135789        1.2903051403
 H          7.7980680016       -1.3492746254       -0.9932781324
 H          5.6665917623       -0.3099974718       -1.7686591417
 H          2.5669881626        0.3333845479       -2.0170474365
 H          3.4658371487       -0.5620532488        1.3829094971
 H          1.9474744662       -1.8376979684        2.8570039157
 H         -0.2520648455       -2.5828486420        2.0210596662
 H         -1.5567647529       -3.1810922946        0.0803230671
 C         -1.4004273327       -2.4533337901       -1.9011398806
 C         -2.7272606577       -2.6061464719       -2.5817315689
 C         -1.8652269640       -1.4178244772       -2.8784848023
 H         -1.3752912355       -1.3695843242       -3.8404963966
 H         -2.1632005306       -0.4548933384       -2.4951391883
 H         -2.8358980762       -3.3685078641       -3.3382081150
 H         -3.6119464766       -2.4586268723       -1.9790660016
 H         -0.6073236126       -3.1146226714       -2.2371308060
