  62
        -98.94526355
 C         -1.8107555288       -1.4539912911        0.1029504683
 C         -1.5565122104       -0.0751213185       -0.0968954719
 C         -2.6001707323        0.8402818171        0.3881217076
 C         -3.6986257535        0.3373157307        0.9801428493
 C         -4.8601585775        1.1544019671        1.4656974735
 C         -5.9233314534        1.3163274329        0.3701638179
 C         -5.3592891054        1.7698058634       -0.9763843897
 H         -4.7195638428        0.9807637115       -1.3781661683
 H         -6.2028542483        1.8791380868       -1.6614992445
 C         -4.5688512704        3.0846406556       -0.9233542357
 H         -4.8788491241        3.7132330891       -1.7608697391
 H         -4.8104073195        3.6247058058       -0.0071897106
 C         -3.0519428358        2.9160781077       -1.0282059653
 H         -2.6129308417        3.9025950049       -1.1982161622
 H         -2.8117580787        2.2969116709       -1.8958978169
 C         -2.3616308622        2.3118626994        0.2008931082
 H         -1.2820102702        2.4164173453        0.0614618774
 H         -2.6528005969        2.8659026174        1.0954982420
 H         -6.4216741793        0.3547439325        0.2263414053
 H         -6.6681276886        2.0355618801        0.7159050134
 H         -5.3073147063        0.6436108763        2.3201912653
 H         -4.5022659240        2.1310630279        1.7856977215
 O         -3.8991245036       -0.9931831867        1.1651026911
 C         -2.9626356853       -1.9193913130        0.7368647894
 O         -3.2627026303       -3.1064425988        0.9778637220
 H          1.6377831462       -1.7351902688       -1.4452677166
 C          1.6568889840       -1.7852730849       -0.3682133911
 C          0.5245266678       -2.1728508185        0.3280658250
 C          0.5820675764       -2.2213656294        1.7185982733
 C          1.7404463017       -1.8832186368        2.3910744358
 C          2.8661560102       -1.4813891316        1.6923234323
 C          2.8177345602       -1.4277753667        0.3064087019
 N          3.9541640061       -1.0175672318       -0.4175348996
 S          4.6540677682        0.4566506336       -0.0450637615
 O          5.5724963498        0.7167449828       -1.1307918649
 O          5.2331344850        0.3848231806        1.2729850993
 C          3.3327120394        1.6531998168       -0.0677679110
 C          2.6241869886        1.9072285275        1.0886224763
 C          1.5870965717        2.8244463633        1.0480869839
 C          1.2781667971        3.4671034828       -0.1401355291
 C          1.9934416658        3.1938613970       -1.2950951995
 C          3.0288564484        2.2752522782       -1.2618605642
 H          3.6169657437        2.0422733104       -2.1352348686
 H          1.7441177222        3.6902950197       -2.2192441852
 H          0.4748843712        4.1870872143       -0.1664138017
 H          1.0208677376        3.0313897466        1.9424280882
 H          2.8974345596        1.3943900006        1.9962912954
 H          3.8308855867       -1.0847975740       -1.4180561782
 H          3.7738680093       -1.1989296916        2.2006263316
 H          1.7688139574       -1.9277552182        3.4695694170
 H         -0.3028067148       -2.5194542067        2.2651668268
 C         -0.7879088215       -2.4832377610       -0.3478827108
 H         -1.1466135174       -3.4547457444        0.0192627158
 C         -0.7124598912       -2.5291373657       -1.8592508729
 C         -0.1657458460       -3.7447339068       -2.5442342049
 C         -1.6329403070       -3.4453152703       -2.6054525650
 H         -2.0519763797       -3.1056290804       -3.5408337624
 H         -2.3074522727       -4.0553800232       -2.0224096030
 H          0.4208961733       -3.6145449471       -3.4411913164
 H          0.1589205070       -4.5645082812       -1.9214291475
 H         -0.5137031036       -1.5591210950       -2.3004382413
 O         -0.5187594519        0.3710846241       -0.6502542381
