  62
        -98.94622691
 C          1.5878517575        1.5849892623       -0.2391961973
 C          1.4507454227        0.2292210343       -0.6247291775
 C          2.7047429649       -0.5252206740       -0.7454591275
 C          3.8796574641        0.0854307051       -0.5090660336
 C          5.2400824814       -0.5514485676       -0.5983693898
 C          5.6525740723       -1.3162212386        0.6672101552
 C          4.9204006012       -2.6389698502        0.8986825974
 H          4.9835867871       -3.2497069822       -0.0023588283
 H          5.4586759987       -3.1673729045        1.6881680285
 C          3.4515758404       -2.4865932880        1.3194564452
 H          3.2762120899       -1.4658915897        1.6670722477
 H          3.2442417494       -3.1501527986        2.1619139324
 C          2.4394766112       -2.8156144583        0.2218266708
 H          1.4360325478       -2.6262542308        0.6112827873
 H          2.5119913694       -3.8745248684       -0.0351227726
 C          2.6090821695       -1.9876806938       -1.0580902864
 H          3.4878800687       -2.3189795751       -1.6106175374
 H          1.7225320499       -2.1328843537       -1.6794983102
 H          5.5081913366       -0.6637633608        1.5315783909
 H          6.7215619141       -1.5267999998        0.5860342617
 H          5.9541608228        0.2592235366       -0.7586075042
 H          5.2764766219       -1.2209694706       -1.4581041483
 O          3.9679469087        1.3982594192       -0.1622215017
 C          2.8291375408        2.1706217016        0.0053111718
 O          3.0515146338        3.3442523777        0.3678539635
 O          0.3460194754       -0.3236824188       -0.8551411304
 C          0.3451862712        2.4368690274       -0.0479391426
 C         -0.5293219634        1.7820228106        0.9929979382
 C         -0.0138774322        1.6078386055        2.2758285935
 C         -0.7569393575        0.9831962025        3.2577013590
 C         -2.0265301002        0.5071576278        2.9778363951
 C         -2.5505506934        0.6791747273        1.7029183567
 C         -1.8067622409        1.3214402150        0.7212925089
 H         -2.2427955300        1.4457512860       -0.2548494129
 N         -3.8401888581        0.2231046250        1.3961244383
 S         -4.1984536691       -0.4034488262       -0.1085287608
 O         -4.2938553609        0.6562250833       -1.0814712626
 O         -5.4177030093       -1.1555757021        0.1115684204
 C         -2.8894511137       -1.5349407245       -0.5395018215
 C         -2.3744758679       -1.5123516614       -1.8175422511
 C         -1.4090222014       -2.4407469259       -2.1690266861
 C         -0.9738268477       -3.3686276125       -1.2381673378
 C         -1.4962942373       -3.3746710760        0.0452967999
 C         -2.4671747037       -2.4537173704        0.3998811826
 H         -2.8942412246       -2.4429831137        1.3898442837
 H         -1.1472877309       -4.0929366240        0.7704393003
 H         -0.2163929750       -4.0871198357       -1.5106962208
 H         -0.9934116763       -2.4287328927       -3.1642583375
 H         -2.7306732114       -0.7650440058       -2.5087904846
 H         -4.3012150921       -0.2901912239        2.1326398044
 H         -2.6073622863        0.0116156930        3.7407841730
 H         -0.3438007858        0.8568757279        4.2471457307
 H          0.9840082277        1.9687190816        2.4876614342
 H          0.6902469363        3.4030592084        0.3470241553
 C         -0.3517347125        2.6696819184       -1.3710278420
 C         -1.2736827829        3.8392785724       -1.5337351795
 C          0.0577743947        3.8320749828       -2.2219354612
 H          0.0850269643        3.7026960751       -3.2935229484
 H          0.8353539255        4.4781864618       -1.8406383284
 H         -2.1661128257        3.7127448585       -2.1282678993
 H         -1.4021685816        4.4944645806       -0.6852193584
 H         -0.6076767336        1.7470584377       -1.8793938726
