  62
        -98.94310189
 C         -2.5618336299       -0.1689595237        0.5316537826
 C         -2.1989891997        0.3677784133       -0.7292718209
 C         -1.9744288860        1.8214622494       -0.7685326325
 C         -2.0770461152        2.5390687907        0.3634597196
 C         -1.8455708767        4.0182252106        0.4731622904
 C         -0.3885337313        4.3377761025        0.8316466857
 C          0.6395255381        3.6315709750       -0.0527065155
 H          0.6141797122        2.5563953256        0.1435735052
 H          1.6272943463        3.9835305631        0.2552004139
 C          0.4568448280        3.8703650360       -1.5580675414
 H          1.4355977039        4.0706174911       -1.9987014507
 H         -0.1619440480        4.7538602808       -1.7232758176
 C         -0.1359693830        2.6789805335       -2.3133503039
 H          0.4023105806        1.7707651807       -2.0319637685
 H          0.0177818918        2.8409432214       -3.3839645355
 C         -1.6348051928        2.4322836584       -2.0987991576
 H         -1.9629732621        1.7097620679       -2.8519180444
 H         -2.1890202145        3.3621448691       -2.2482742950
 H         -0.2113860034        4.0359110606        1.8668372451
 H         -0.2480017885        5.4185507311        0.7625841283
 H         -2.1099533303        4.4905699932       -0.4711061616
 H         -2.4958779568        4.4072568126        1.2590539197
 O         -2.3842398511        1.9836696765        1.5651326850
 C         -2.6104606422        0.6225619313        1.6804406526
 O         -2.8497566342        0.2426261836        2.8461298879
 H         -0.2102265250       -1.2328933424        1.1426544892
 C         -0.3533183997       -2.0295149727        0.4250419688
 C         -1.6434556866       -2.4122253036        0.0790612414
 C         -1.8070863701       -3.4412124375       -0.8379370168
 C         -0.7009890690       -4.0477588009       -1.4088310583
 C          0.5798018814       -3.6333121637       -1.0946529593
 C          0.7531114523       -2.6098145777       -0.1692124908
 N          2.0377258952       -2.1572931509        0.1884571245
 S          2.2048657145       -0.4933870141        0.4462160261
 O          1.8319692152       -0.1951428597        1.8082345631
 O          1.5182567044        0.2446288193       -0.5864986835
 C          3.9697803791       -0.3111177295        0.2669746192
 C          4.7851121652       -0.7945868334        1.2731947985
 C          6.1590556772       -0.6807456760        1.1344854969
 C          6.6919488783       -0.0876769270       -0.0008565576
 C          5.8611061153        0.3952721524       -1.0003327435
 C          4.4854997524        0.2824023940       -0.8690029789
 H          3.7992499683        0.6468542019       -1.6166121077
 H          6.2774682670        0.8587813903       -1.8800822790
 H          7.7616804966        0.0008854098       -0.1057092895
 H          6.8079182044       -1.0528477848        1.9107644741
 H          4.3243785654       -1.2372969329        2.1408741421
 H          2.7549715749       -2.5011918919       -0.4364746893
 H          1.4385057341       -4.0900890445       -1.5630943300
 H         -0.8404698998       -4.8419599440       -2.1266921158
 H         -2.7979841821       -3.7494250659       -1.1284496199
 C         -2.7779627938       -1.6608795087        0.7320054510
 H         -2.6899200001       -1.8109789853        1.8218653821
 C         -4.1575916546       -2.1656011258        0.3374955042
 C         -5.3399655453       -1.2443088701        0.3181647912
 C         -4.8050870455       -1.8037201650       -0.9640217251
 H         -5.3867741446       -2.5589189634       -1.4723537132
 H         -4.2592838737       -1.1503366239       -1.6253324897
 H         -5.1624135187       -0.2007337345        0.5357131326
 H         -6.2834481235       -1.6140909092        0.6908752867
 H         -4.3411005438       -3.1687143453        0.7105651255
 O         -2.0853425337       -0.3170544850       -1.7785283388
