  62
        -98.94208375
 C         -1.4735631399       -1.1358271695        0.6388987053
 C         -2.4283235266       -0.9254681378       -0.3853550949
 C         -2.9471029711        0.4485147280       -0.4943870582
 C         -2.4727790835        1.4233254591        0.2990413675
 C         -2.8700921469        2.8739829687        0.2633268684
 C         -4.1468786904        3.1960145766        1.0518445955
 C         -5.4471717252        2.7093802220        0.4110099543
 H         -6.2680227419        3.1856393830        0.9508261343
 H         -5.4919713120        3.0551333709       -0.6222053394
 C         -5.6437803035        1.1877568362        0.4555744080
 H         -6.6626968825        0.9615761616        0.7776507155
 H         -4.9684707647        0.7553437503        1.1973086468
 C         -5.4243363603        0.4812898519       -0.8821794774
 H         -6.1769139855        0.8141167490       -1.6004277961
 H         -5.5564733320       -0.5927696642       -0.7290765858
 C         -4.0348830450        0.7030535071       -1.4943669243
 H         -3.9024901139       -0.0064530380       -2.3151657835
 H         -3.9538192467        1.7142122431       -1.8936627560
 H         -4.2010162694        4.2823891953        1.1532639780
 H         -4.0534491477        2.7721692308        2.0543332546
 H         -2.9860129302        3.1932052513       -0.7730569149
 H         -2.0394862508        3.4312446988        0.7025444570
 O         -1.5294804084        1.1905220725        1.2485282368
 C         -1.0146402039       -0.0781559305        1.4304596793
 O         -0.1534007581       -0.1529236084        2.3321859082
 O         -2.8480710185       -1.8059127374       -1.1796622273
 C         -0.7578321261       -2.4520292271        0.9201926446
 C          0.7032029760       -2.2934406926        0.5761078510
 C          1.7036614147       -2.8531944678        1.3617384973
 C          3.0373364062       -2.6690934208        1.0417883778
 C          3.3986935023       -1.8911800847       -0.0437549645
 C          2.4048863830       -1.3190723088       -0.8281368053
 C          1.0702352936       -1.5509742914       -0.5366012830
 H          0.3124335434       -1.0972376789       -1.1583613068
 N          2.7109924553       -0.4558997598       -1.9037719030
 S          2.2674232559        1.1468760567       -1.6637996795
 O          0.8480872258        1.2370244289       -1.4422732458
 O          2.7873454843        1.8589295934       -2.8114487516
 C          3.1761816735        1.6264898255       -0.2050747746
 C          4.4047220597        2.2389411469       -0.3669906002
 C          5.1570953386        2.5442549365        0.7551186028
 C          4.6757869498        2.2216598072        2.0154146849
 C          3.4434102504        1.6040328665        2.1602756943
 C          2.6815403071        1.3003670612        1.0418669934
 H          1.7177588663        0.8242138113        1.1366302840
 H          3.0591198511        1.3487912004        3.1348781328
 H          5.2623141694        2.4534786388        2.8903893459
 H          6.1142989206        3.0276462894        0.6441382600
 H          4.7353847761        2.4726101437       -1.3662542535
 H          3.6831795354       -0.4862571961       -2.1821860096
 H          4.4383830403       -1.7155765743       -0.2757544043
 H          3.8036855466       -3.1116761302        1.6592090195
 H          1.4312112261       -3.4163150715        2.2421551537
 H         -0.8157660535       -2.6097182916        2.0112025518
 C         -1.3790325369       -3.6689607207        0.2550866595
 C         -0.8736482134       -4.2266951838       -1.0377894349
 C         -0.6574019294       -4.9838962211        0.2363401578
 H         -1.2312855568       -5.8824624907        0.4047040670
 H          0.3464400803       -5.0176179063        0.6307557469
 H         -1.6030722603       -4.5852669858       -1.7475700957
 H         -0.0230246720       -3.7456234210       -1.4970277428
 H         -2.4515854964       -3.7080655240        0.4048335310
