  62
        -98.94142107
 C         -2.4096552109       -1.0513425638       -0.5796072484
 C         -3.4848445628       -0.5788327647        0.2194250059
 C         -3.9971680238        0.7568201639       -0.0989031074
 C         -3.4523070161        1.4531743341       -1.1124663237
 C         -3.8685137356        2.8237483938       -1.5723931311
 C         -3.2359242816        3.9672229104       -0.7672087379
 C         -3.7908748008        4.1515270387        0.6458359572
 H         -3.4243704534        5.1131208619        1.0104722977
 H         -4.8788236596        4.2117275206        0.6031447541
 C         -3.3725215396        3.0578282052        1.6388149136
 H         -2.5115364182        2.5130643498        1.2421689439
 H         -3.0486665277        3.5198965481        2.5743595807
 C         -4.4770619460        2.0591296853        1.9859866582
 H         -4.0581152502        1.3091463728        2.6618350539
 H         -5.2836706253        2.5745072280        2.5120463205
 C         -5.0720784913        1.3275212396        0.7758461870
 H         -5.7092740741        2.0018213237        0.2042913519
 H         -5.6786961172        0.4960083939        1.1425966928
 H         -2.1564711716        3.8037425309       -0.7152797532
 H         -3.4058510478        4.8913789488       -1.3245391704
 H         -4.9548970650        2.9088896843       -1.5360394340
 H         -3.5456183418        2.9146147839       -2.6116743263
 O         -2.4387280850        0.9603096823       -1.8693064951
 C         -1.8729796988       -0.2802761636       -1.6106701171
 O         -0.9288082328       -0.5578141871       -2.3786099663
 O         -3.9975747616       -1.2509006768        1.1533809377
 C         -1.8451899330       -2.4171558582       -0.2197938232
 C         -0.5989999187       -2.2398757068        0.6148127548
 C         -0.6056636451       -2.5247484256        1.9753287415
 C          0.5219652969       -2.3053541745        2.7475595368
 C          1.6765774172       -1.7937740604        2.1822997093
 C          1.6885873543       -1.4974571682        0.8257830026
 C          0.5630719754       -1.7323495494        0.0507802635
 H          0.5743457841       -1.4785452016       -0.9990013932
 N          2.8567501848       -0.9528680228        0.2353808046
 S          3.2338000536        0.6152377758        0.7490668853
 O          3.4602902682        0.5870621301        2.1714658506
 O          2.2324641409        1.5534301283        0.2838408371
 C          4.7745509047        0.8795805194       -0.1052028116
 C          4.7779165695        1.5643309292       -1.3047994118
 C          5.9786502174        1.7333251334       -1.9765669819
 C          7.1474993944        1.2133238641       -1.4416664050
 C          7.1274325008        0.5269256231       -0.2365294644
 C          5.9306855921        0.3557017213        0.4404617413
 H          5.8671081579       -0.1629754448        1.3824223842
 H          8.0388154199        0.1255112645        0.1762056874
 H          8.0799473159        1.3460908065       -1.9671867709
 H          5.9965103337        2.2679883299       -2.9127089635
 H          3.8459474310        1.9572008207       -1.6798971423
 H          2.7517460921       -0.9169296177       -0.7721039725
 H          2.5521157778       -1.5949472078        2.7776707636
 H          0.5004460325       -2.5301264173        3.8032843011
 H         -1.5115305140       -2.8996032868        2.4297552826
 H         -2.6096736699       -2.8832931867        0.4162034160
 C         -1.6049252464       -3.3139829594       -1.4169659955
 C         -1.4885510375       -4.7922790006       -1.2015390649
 C         -2.6993587218       -4.2264564510       -1.8793358444
 H         -2.8214226523       -4.3856136242       -2.9401641434
 H         -3.6300080323       -4.2086459232       -1.3311632774
 H         -0.7768129960       -5.3442911332       -1.7957010233
 H         -1.5982968995       -5.1591065566       -0.1922697830
 H         -0.9824666796       -2.8642729502       -2.1790858553
