  62
        -98.94066037
 C          2.6421665017        1.2516425702       -0.3208958953
 C          2.2473427023        0.0614034408       -0.9784001301
 C          3.2639464090       -0.9992380273       -1.0451389497
 C          4.4800801061       -0.7851744669       -0.5112701521
 C          5.5878657345       -1.7964238752       -0.4634693436
 C          5.5369094351       -2.6127638639        0.8355282007
 C          4.1524968920       -3.1762354771        1.1572166343
 H          4.2437869347       -3.7587243928        2.0766570146
 H          3.4688040645       -2.3503821588        1.3690701501
 C          3.5530858292       -4.0572787663        0.0522510933
 H          4.3406611603       -4.3872760729       -0.6262526483
 H          3.1244922149       -4.9505050372        0.5115788231
 C          2.4352454594       -3.3934960759       -0.7544663547
 H          1.6856628076       -2.9798456097       -0.0737444044
 H          1.9416270583       -4.1668435025       -1.3494000220
 C          2.8764660364       -2.2852453653       -1.7190943480
 H          3.6877485635       -2.6501013428       -2.3522169965
 H          2.0220753773       -2.0431252996       -2.3577873607
 H          5.8436133125       -1.9679443447        1.6622788619
 H          6.2550778819       -3.4309924630        0.7580081412
 H          6.5400715157       -1.2655423931       -0.5110693156
 H          5.5074110607       -2.4574412396       -1.3240353680
 O          4.8265273493        0.3771070747        0.0984108369
 C          3.9150194096        1.4103482737        0.2301484435
 O          4.3511806160        2.4054869515        0.8429055688
 O          1.1108907866       -0.1127478211       -1.4922140065
 C          1.6636119744        2.4021679995       -0.1467539085
 C          0.5339124237        1.9221232100        0.7317199427
 C          0.7889246480        1.7016241101        2.0830688356
 C         -0.1944330762        1.2011083129        2.9144085202
 C         -1.4523567588        0.9058531914        2.4167651864
 C         -1.7135326168        1.1149759513        1.0702017438
 C         -0.7255733272        1.6283166219        0.2375999627
 H         -0.9385320664        1.7728601925       -0.8095556469
 N         -2.9912413846        0.8302244857        0.5509239987
 S         -3.7218990444       -0.6143586784        1.0360834247
 O         -4.3035921355       -0.4134252629        2.3403702216
 O         -2.7915987804       -1.7157685511        0.9259269905
 C         -5.0121820933       -0.7548224750       -0.1846569901
 C         -6.2327447641       -0.1540092839        0.0572550423
 C         -7.2212829968       -0.2335602720       -0.9107535963
 C         -6.9733468596       -0.9064941216       -2.0978437207
 C         -5.7433955467       -1.5056642861       -2.3256702012
 C         -4.7499224961       -1.4291139389       -1.3622647729
 H         -3.7816577923       -1.8860604935       -1.4943471993
 H         -5.5538914247       -2.0302778549       -3.2483799784
 H         -7.7438210202       -0.9672922433       -2.8501204060
 H         -8.1795692438        0.2286514237       -0.7371224652
 H         -6.3807842191        0.3514641489        0.9971278001
 H         -3.0033753282        0.9041018625       -0.4579084281
 H         -2.2248642037        0.5006632698        3.0502409092
 H          0.0183586325        1.0332368475        3.9598512441
 H          1.7769662819        1.9167956112        2.4679396771
 H          2.2099369904        3.1838248918        0.3982004131
 C          1.2204214644        2.9579868007       -1.4832567228
 C          0.5752637258        4.3091371605       -1.5431748030
 C          1.9636893635        4.1169921492       -2.0730732037
 H          2.1168187974        4.1397705833       -3.1416119369
 H          2.7901531619        4.5197039112       -1.5058696960
 H         -0.2255351183        4.4691120519       -2.2489092884
 H          0.4566869726        4.8445135821       -0.6133596787
 H          0.8723716345        2.1941709476       -2.1678932576
