  62
        -98.93304600
 C          2.0779088020        1.1123042621        0.2972559620
 C          2.0128697727        0.0992058956       -0.6904294118
 C          2.2770125490       -1.2717884603       -0.2240698024
 C          2.5178707067       -1.5075682410        1.0765434545
 C          2.7321135448       -2.8481991556        1.7291263445
 C          3.9912170084       -3.6260697537        1.2998105803
 C          3.7583386608       -4.6307354665        0.1646917574
 H          4.3288130087       -5.5374724048        0.3757705957
 H          2.7054865350       -4.9156560382        0.1600486681
 C          4.1661346785       -4.1616848418       -1.2351244838
 H          5.2517009982       -4.2328713458       -1.3331055258
 H          3.7239133086       -4.8485847918       -1.9597929338
 C          3.7669371385       -2.7321677640       -1.6020612612
 H          3.9311522235       -2.5951374358       -2.6726618278
 H          4.4269771031       -2.0242933128       -1.0950843607
 C          2.3115690500       -2.3608451548       -1.2565372106
 H          1.8013308137       -1.9687012572       -2.1390842497
 H          1.7589493575       -3.2325272207       -0.9077907366
 H          4.7779907984       -2.9218717476        1.0310708410
 H          4.3348947196       -4.1770070243        2.1766703751
 H          2.7877538922       -2.6416992982        2.8000378269
 H          1.8454828399       -3.4627618321        1.5550127726
 O          2.5556437392       -0.5079980695        2.0001549476
 C          2.3341269932        0.8069976844        1.6365427386
 O          2.4016623408        1.6155237446        2.5862569892
 H         -0.3384823970        1.0665681596       -0.7793868999
 C         -0.6403453922        1.9638912588       -0.2613027595
 C          0.3092135402        2.8605249925        0.2039447812
 C         -0.1233772793        4.0142450350        0.8482881565
 C         -1.4727552319        4.2523514737        1.0368125755
 C         -2.4147385496        3.3327896952        0.6121797744
 C         -1.9920450720        2.1796301000       -0.0387219825
 N         -2.9111021110        1.2149940386       -0.4812279597
 S         -2.4693540516       -0.4101314336       -0.3107984451
 O         -1.7055033071       -0.5914059733        0.9035957927
 O         -1.8582977641       -0.8593434469       -1.5354483070
 C         -4.0791949263       -1.1629893843       -0.1420690826
 C         -4.7766890892       -1.5200581477       -1.2805827932
 C         -6.0420794290       -2.0694407627       -1.1463707377
 C         -6.5865254280       -2.2505340272        0.1163387865
 C         -5.8739520722       -1.8892635125        1.2500541897
 C         -4.6085664835       -1.3381053993        1.1227610838
 H         -4.0130558784       -1.0511077899        1.9748468982
 H         -6.2976332458       -2.0344127661        2.2306952360
 H         -7.5711147026       -2.6786331019        0.2182351016
 H         -6.5973895934       -2.3540394923       -2.0253988812
 H         -4.3074803607       -1.3683967966       -2.2386962881
 H         -3.8518576656        1.3838596590       -0.1512700508
 H         -3.4667541182        3.5022410370        0.7844259505
 H         -1.7939632268        5.1513308669        1.5404474493
 H          0.6075696667        4.7161041334        1.2209898246
 C          1.7844345700        2.5791439263        0.0288995753
 H          2.3202707174        3.1405574311        0.8080355098
 C          2.2561459557        3.0735591593       -1.3244418890
 C          2.6198065641        4.5169433460       -1.4933329766
 C          3.6900003298        3.4678871512       -1.5038755520
 H          4.1749209387        3.2263218229       -2.4374352797
 H          4.3381740528        3.3911917794       -0.6427064873
 H          2.5521149624        5.1583297405       -0.6279794624
 H          2.3673883219        5.0030829778       -2.4229746787
 H          1.7708043781        2.5735936851       -2.1522985200
 O          1.7450476773        0.2982942287       -1.9055093576
