  62
        -98.94620427
 C         -1.2084279445       -1.4866548165        0.6246926107
 C         -2.2278069099       -1.3664596382       -0.3522675604
 C         -3.2410629627       -0.3337280000       -0.0941282279
 C         -3.1741003050        0.4144687043        1.0208171129
 C         -4.1605801647        1.4712213513        1.4409415162
 C         -3.9357851914        2.8502059469        0.8052551941
 C         -4.2648716078        2.9461750447       -0.6847589123
 H         -5.2774638155        2.5794260880       -0.8554138138
 H         -4.2564008377        4.0061538858       -0.9464910797
 C         -3.2835825029        2.2001156234       -1.6000126313
 H         -3.0046660120        2.8425394087       -2.4378924463
 H         -2.3677270625        1.9727277030       -1.0502399610
 C         -3.8359795101        0.9022001905       -2.1883920868
 H         -4.6780475622        1.1250426086       -2.8474430271
 H         -3.0509306255        0.4358427804       -2.7888481789
 C         -4.2955618408       -0.1158443971       -1.1368453160
 H         -5.2263760579        0.2127565017       -0.6749513794
 H         -4.4706588700       -1.0715062034       -1.6367364682
 H         -2.8981277931        3.1474455078        0.9675395464
 H         -4.5706970208        3.5593343945        1.3417736369
 H         -5.1719525149        1.1297507414        1.2170583223
 H         -4.0628708468        1.5727348627        2.5242976477
 O         -2.1845038144        0.2606080207        1.9419640605
 C         -1.1793008170       -0.6750266913        1.7612345651
 O         -0.3322395044       -0.6926306250        2.6782170776
 H          2.1540317079       -1.0590957927        0.8628692170
 C          1.9905736972       -1.2719728889       -0.1830541858
 C          0.8905498365       -2.0275037415       -0.5691505973
 C          0.7082303912       -2.3012418010       -1.9202135299
 C          1.6087746263       -1.8256102512       -2.8561316866
 C          2.6997130121       -1.0681438138       -2.4693518437
 C          2.8919391457       -0.7889585246       -1.1209514346
 N          4.0033640881       -0.0421857836       -0.7020348591
 S          3.8873114125        1.0375370048        0.5660985219
 O          5.0386509928        1.8985604462        0.3986975526
 O          3.8067467168        0.3301073063        1.8179014887
 C          2.3995491843        1.9712090833        0.2607935304
 C          2.4033723464        2.8572682184       -0.7999568086
 C          1.2591972835        3.5886482373       -1.0696685573
 C          0.1331664350        3.4252696401       -0.2762857317
 C          0.1477714608        2.5348037555        0.7849595588
 C          1.2885412301        1.7961457206        1.0580760892
 H          1.3152215642        1.0913899342        1.8748281077
 H         -0.7207050003        2.3963205588        1.4104539198
 H         -0.7579686392        3.9969238929       -0.4846580990
 H          1.2459477387        4.2842070762       -1.8931315156
 H          3.3036778705        2.9726015259       -1.3813469610
 H          4.5732982600        0.3231786073       -1.4507291134
 H          3.4019719917       -0.6996479181       -3.2013510501
 H          1.4564639378       -2.0441946983       -3.9021566884
 H         -0.1541790427       -2.8650658261       -2.2350425989
 C         -0.0774371225       -2.4957096142        0.4915281253
 H          0.4522906243       -2.4768338315        1.4538988077
 C         -0.5825135491       -3.9041146668        0.2503574377
 C          0.3481854364       -5.0562661764        0.4744543633
 C         -0.7893433358       -4.8160345791        1.4201976355
 H         -1.6287659174       -5.4949852096        1.4023287790
 H         -0.5632772390       -4.4288541454        2.4035363824
 H          0.2924827815       -5.9027096164       -0.1925787573
 H          1.3473049285       -4.8302382729        0.8165597382
 H         -1.2927165885       -3.9778988143       -0.5623148496
 O         -2.3149430734       -2.0814814303       -1.3829693679
