  62
        -98.93470243
 C         -2.6489993194       -0.9974636965        0.7222086258
 C         -2.9559122475        0.2490332998        1.3270752076
 C         -4.2916686891        0.7917550578        1.0626191094
 C         -5.1526393811        0.0935537037        0.3006870532
 C         -6.5621518200        0.4948070076       -0.0404049767
 C         -6.6668172667        1.4517992414       -1.2356813047
 C         -6.2023681701        2.8833656954       -0.9648506833
 H         -6.5320568905        3.4922460843       -1.8090777910
 H         -6.7027387703        3.2640561075       -0.0739232118
 C         -4.6827754326        3.0370897098       -0.8094484513
 H         -4.3409601705        3.8926036398       -1.3964497039
 H         -4.1827777241        2.1537911214       -1.2140564297
 C         -4.2104482791        3.2568510405        0.6279069607
 H         -3.1187929783        3.3129989886        0.6237303061
 H         -4.5959298051        4.2092693124        0.9985783802
 C         -4.6239085640        2.1487530592        1.6052690462
 H         -4.0620371348        2.2822959567        2.5328530460
 H         -5.6885701154        2.2200892582        1.8268904010
 H         -6.0953039934        1.0349172512       -2.0682190814
 H         -7.7165763731        1.4836475354       -1.5364662799
 H         -7.0354255201        0.9468777659        0.8317041657
 H         -7.0955673481       -0.4253575940       -0.2884929492
 O         -4.8309894486       -1.1066552337       -0.2463579086
 C         -3.5693763955       -1.6715095901       -0.0818615067
 O         -3.4271138773       -2.7483381355       -0.6883206074
 O         -2.1478654939        0.8728413685        2.0666065818
 C         -1.2580200093       -1.5459964621        0.9832156069
 C         -0.2846242039       -1.0606753242       -0.0616082687
 C         -0.5666071577       -1.1752841814       -1.4190827477
 C          0.3403702685       -0.7276156663       -2.3626076648
 C          1.5391673095       -0.1548103553       -1.9757791770
 C          1.8307783430       -0.0344518923       -0.6236630610
 C          0.9206515778       -0.4917231466        0.3224249361
 H          1.1440893189       -0.3849870195        1.3753685999
 N          3.0360323898        0.5660520315       -0.2215375478
 S          4.4354644143        0.1541769609       -1.0757034680
 O          4.4881022970        0.9506764302       -2.2757908753
 O          4.4937282742       -1.2778780340       -1.2644802410
 C          5.6982208836        0.6880663345        0.0616707957
 C          6.3041575237       -0.2407226487        0.8862287928
 C          7.2698874191        0.1889324868        1.7828901846
 C          7.6085821652        1.5324242456        1.8411456451
 C          6.9910141293        2.4527381248        1.0069405965
 C          6.0257330489        2.0300682083        0.1070697193
 H          5.5264716623        2.7072765883       -0.5660783984
 H          7.2592857679        3.4958291407        1.0539369948
 H          8.3610741851        1.8638596403        2.5391623466
 H          7.7537564260       -0.5242366246        2.4306709399
 H          6.0153803987       -1.2761055043        0.8006476072
 H          3.1818598906        0.5045681924        0.7768534896
 H          2.2535106363        0.1947332768       -2.7037196250
 H          0.1115921803       -0.8253561402       -3.4136105847
 H         -1.4991840618       -1.6252415544       -1.7258424654
 H         -0.9587719088       -1.0939372096        1.9425231931
 C         -1.2237612337       -3.0561853462        1.1687680440
 C         -0.6349860043       -4.0041282123        0.1724308883
 C          0.0743658430       -3.7473933478        1.4659625353
 H          0.0887331534       -4.5245471895        2.2148230691
 H          0.9751442893       -3.1530862222        1.4256244339
 H         -1.1352440757       -4.9492273194        0.0272048828
 H         -0.2087887883       -3.5980993372       -0.7314510324
 H         -2.0966013224       -3.4132709357        1.7059716748
