  62
        -98.93945015
 C         -0.9076725775       -1.3834071851        0.1963503849
 C         -1.9238335808       -1.0730020792        1.1311552315
 C         -2.7007063446        0.1536672358        0.8881204545
 C         -2.3868794806        0.9340977729       -0.1621362091
 C         -2.9702771913        2.2543022350       -0.6212489734
 C         -4.3513571559        2.7055188786       -0.1500819129
 C         -5.5116007224        1.8235408505       -0.6077617315
 H         -6.4282301389        2.2118433836       -0.1582396427
 H         -5.6105174511        1.9091617097       -1.6926606914
 C         -5.3852285339        0.3399714113       -0.2698480702
 H         -6.2960549756       -0.1592335234       -0.6113482860
 H         -4.5532188669       -0.0941139020       -0.8281836211
 C         -5.2078102262        0.0186370693        1.2136228938
 H         -5.3171419332       -1.0629932583        1.3298176926
 H         -6.0001419059        0.4977212646        1.7918004643
 C         -3.8477278402        0.4110975817        1.8212364892
 H         -3.8431437493        1.4463256229        2.1558027288
 H         -3.6751226871       -0.2156105795        2.7012393344
 H         -4.3649303260        2.8138648188        0.9306280420
 H         -4.5101889239        3.7029601098       -0.5693855417
 H         -2.2439361030        3.0206058364       -0.3278597831
 H         -2.9619375605        2.2148549721       -1.7148179346
 O         -1.3580507510        0.6267254970       -1.0022845651
 C         -0.5933624212       -0.5208646320       -0.8532097217
 O          0.3061817468       -0.6403265189       -1.7041767737
 H          1.2316880490       -0.5934108867        1.4746735030
 C          1.8898099591       -1.2353464635        0.9067476654
 C          1.3773768864       -2.3603955232        0.2716241829
 C          2.2492117566       -3.1684381962       -0.4468150685
 C          3.5944589178       -2.8521018654       -0.5266888650
 C          4.0944255303       -1.7190382255        0.0865245218
 C          3.2281826922       -0.8996201454        0.8021288523
 N          3.6929012084        0.2702373102        1.4289959076
 S          2.7840190043        1.6654968096        1.3620062434
 O          3.7239962567        2.7141555281        1.7069051879
 O          1.6326829961        1.5623822084        2.2257901136
 C          2.2616226112        1.9041133684       -0.3272279904
 C          1.0697353979        2.5640213211       -0.5414160002
 C          0.6725737547        2.8346799023       -1.8400087520
 C          1.4682996352        2.4338271872       -2.9001291336
 C          2.6625944802        1.7714519143       -2.6700383480
 C          3.0709677472        1.5100166739       -1.3727740376
 H          3.9976230572        0.9961129522       -1.1772267391
 H          3.2754590176        1.4515318640       -3.4972853469
 H          1.1505682758        2.6326603132       -3.9115524496
 H         -0.2603537711        3.3443424948       -2.0204451751
 H          0.4712831518        2.8372775134        0.3144582465
 H          4.6731844727        0.4685131003        1.2891688760
 H          5.1414939042       -1.4664277194        0.0136988941
 H          4.2602005332       -3.4907225405       -1.0868950753
 H          1.8768995700       -4.0402553518       -0.9585037346
 C         -0.0965149007       -2.6444835941        0.4239017974
 H         -0.2780503623       -2.8970370541        1.4831961790
 C         -0.5688072317       -3.8394392015       -0.3935733165
 C         -1.9465307790       -3.8853810365       -0.9818790510
 C         -0.7539044035       -3.7531101373       -1.8781065044
 H         -0.4716864530       -4.6028425068       -2.4822295121
 H         -0.5639942778       -2.7990181118       -2.3440906402
 H         -2.5820011282       -3.0226667227       -0.8429676004
 H         -2.4784478305       -4.8249844911       -0.9629157794
 H         -0.1905289263       -4.7785366332       -0.0018273375
 O         -2.1709137184       -1.7911366213        2.1382776058
