  62
        -98.95112989
 C          1.9881176095        0.9189961846        0.1142869807
 C          1.5220808952        1.8468941488       -0.8491042513
 C          0.4774070703        2.7760236339       -0.3978155979
 C          0.0599844888        2.7263701842        0.8800887026
 C         -1.0191714635        3.5874017377        1.4684242332
 C         -2.3950874725        2.9144981292        1.3726806191
 C         -2.7354797478        2.3867732497       -0.0209901276
 H         -2.0796534620        1.5487963072       -0.2681523817
 H         -3.7512601208        1.9859786678        0.0212184654
 C         -2.6445535359        3.4311502568       -1.1420733505
 H         -3.5163034947        3.3213353510       -1.7905290617
 H         -2.6750077580        4.4375722855       -0.7216456820
 C         -1.4091701984        3.2853252574       -2.0334627017
 H         -1.3121919037        2.2412658651       -2.3454440495
 H         -1.5655446000        3.8840201106       -2.9353488834
 C         -0.0807251418        3.7350773524       -1.4099616746
 H         -0.1950075096        4.7322519096       -0.9784814977
 H          0.6615906823        3.7907294967       -2.2118722352
 H         -2.4228257002        2.0729757564        2.0685961094
 H         -3.1519443161        3.6382322002        1.6807806522
 H         -0.7831129326        3.7589575112        2.5201165161
 H         -1.0343244016        4.5437600724        0.9492962536
 O          0.5626403677        1.8527653353        1.7883601143
 C          1.5033399806        0.8985159135        1.4215527016
 O          1.8175258105        0.1166650088        2.3384248939
 O          1.9628394328        1.8946602431       -2.0295797838
 C          2.9794932303       -0.1499186910       -0.3160611741
 C          2.2827342833       -1.4883380550       -0.2525256755
 C          2.7436773612       -2.5736087822        0.4801092977
 C          2.0057746332       -3.7442796094        0.5297628832
 C          0.7948802465       -3.8510123337       -0.1293649225
 C          0.3294364757       -2.7740972885       -0.8769895570
 C          1.0871475707       -1.6164574806       -0.9507381483
 H          0.7262020916       -0.7872556146       -1.5422160971
 N         -0.8941020414       -2.8492935422       -1.5673609917
 S         -2.0213005825       -1.6188769946       -1.4612951488
 O         -3.1859661804       -2.1400177864       -2.1423438172
 O         -1.4715780969       -0.3942249940       -1.9806374681
 C         -2.3811732884       -1.4486295835        0.2763386892
 C         -3.5536694399       -1.9745955070        0.7823089878
 C         -3.8087120472       -1.8595924791        2.1394546965
 C         -2.8872096299       -1.2347026966        2.9667050187
 C         -1.7115860096       -0.7170181527        2.4448728282
 C         -1.4572754747       -0.8215405519        1.0870671038
 H         -0.5514857719       -0.4236031833        0.6571990139
 H         -0.9787502111       -0.2360086676        3.0747651366
 H         -3.0837406076       -1.1481915741        4.0237568066
 H         -4.7227027077       -2.2587278686        2.5488247128
 H         -4.2414966341       -2.4501697649        0.1020589817
 H         -1.3561847699       -3.7443572693       -1.4917434064
 H          0.2132429494       -4.7583675290       -0.0705931819
 H          2.3721852186       -4.5807852651        1.1050523846
 H          3.6733087085       -2.5004829050        1.0195430994
 H          3.2035192112        0.0689066199       -1.3706557745
 C          4.2620077985       -0.0800564645        0.4825859107
 C          5.5317152190       -0.6290551270       -0.0941527732
 C          5.3457835463        0.8521518193        0.0341099680
 H          5.9127662577        1.3820504632        0.7846455776
 H          5.1673896755        1.4266747237       -0.8633831481
 H          6.2314639130       -1.1157404598        0.5681519872
 H          5.4853378053       -1.0613645495       -1.0823219415
 H          4.0983866500       -0.1774520927        1.5493708129
