  62
        -98.94870507
 C         -1.4485818442       -1.4145036296       -0.3575625069
 C         -0.3268382115       -1.6707221986       -1.1803610677
 C          0.6681655140       -2.6000538095       -0.6357537916
 C          0.5016568987       -3.1049142665        0.6000637852
 C          1.4095084184       -4.0917989114        1.2833059886
 C          2.6314835149       -3.4543263433        1.9573559744
 C          3.7262256677       -2.9810090466        1.0009381454
 H          4.6146618493       -2.7852087599        1.6049624698
 H          3.9743789826       -3.7836938389        0.3053764916
 C          3.3752557955       -1.7068055137        0.2201749835
 H          2.5525129327       -1.1858623435        0.7181022510
 H          4.2353499231       -1.0318444708        0.2390737139
 C          3.0132740801       -1.9343681239       -1.2480925988
 H          3.8920841443       -2.2943374999       -1.7884978119
 H          2.7175571728       -0.9743650606       -1.6785979447
 C          1.8660155983       -2.9253201677       -1.4768197519
 H          1.5614301892       -2.8557126408       -2.5242133656
 H          2.2022387458       -3.9427554093       -1.2767465159
 H          2.2949373417       -2.6113361111        2.5663291501
 H          3.0612733305       -4.2016529617        2.6288658779
 H          0.8090190530       -4.5829940817        2.0521287022
 H          1.7392844121       -4.8446455208        0.5661852658
 O         -0.5626192301       -2.7884698345        1.3839762258
 C         -1.5528045646       -1.9279120440        0.9348332660
 O         -2.4617746044       -1.7175523284        1.7616685435
 O         -0.1723897576       -1.1579845817       -2.3221587997
 C         -2.5350270407       -0.4787093229       -0.8589421891
 C         -2.6011463011        0.7250695208        0.0469154731
 C         -3.7701263981        1.2077546162        0.6185932375
 C         -3.7266357497        2.2847567714        1.4879920558
 C         -2.5273714204        2.8936024971        1.8071754926
 C         -1.3535257887        2.4290832930        1.2221854250
 C         -1.4039701589        1.3705003733        0.3319955561
 H         -0.4915168820        1.0024460757       -0.1142584257
 N         -0.1236873212        3.0443644638        1.4909607311
 S          1.3296558439        2.2577952598        1.2754506216
 O          1.2599648219        0.8558981439        1.6213176737
 O          2.2781475238        3.0400042135        2.0421504555
 C          1.7105165151        2.4549618049       -0.4548263444
 C          2.8373473948        1.8073268254       -0.9209803699
 C          3.1973286042        1.9482413231       -2.2513699368
 C          2.4269373784        2.7358637878       -3.0922997841
 C          1.3029631133        3.3859067408       -2.6084128599
 C          0.9391008991        3.2504330443       -1.2773374409
 H          0.0659983950        3.7422087610       -0.8819088978
 H          0.7038434349        3.9976013114       -3.2637452214
 H          2.7039291152        2.8414438238       -4.1292906410
 H          4.0725260842        1.4413740942       -2.6255433986
 H          3.4053517152        1.2019798435       -0.2329792837
 H         -0.1096776219        3.7035403202        2.2536536205
 H         -2.4932168198        3.7169615371        2.5039716753
 H         -4.6399715487        2.6455292374        1.9362265216
 H         -4.7117293017        0.7318489332        0.4000822058
 H         -2.1995540467       -0.1472218528       -1.8528931387
 C         -3.8522689484       -1.2098829761       -1.0031518941
 C         -4.8689107110       -0.7405228249       -1.9995607245
 C         -4.1072858622       -2.0070251591       -2.2460333083
 H         -4.6258854384       -2.9496164796       -2.1556010345
 H         -3.3368029895       -2.0042346679       -3.0030881741
 H         -5.9148490570       -0.8149139904       -1.7431295891
 H         -4.6202961378        0.1234787823       -2.5966934759
 H         -4.2038743820       -1.6219176622       -0.0638956944
