  62
        -98.93295956
 C          1.9329465978        1.6462601422       -0.2626625097
 C          2.7291258182        1.2515734365        0.8432465840
 C          3.8946682121        0.3973651132        0.5672555395
 C          4.1446294821        0.0398687012       -0.7038398306
 C          5.2221221992       -0.8832780572       -1.2023985611
 C          4.6927303540       -2.3236493393       -1.3090902967
 C          4.8099318557       -3.1506381562       -0.0291975064
 H          4.2882200871       -4.0943874103       -0.2047563722
 H          5.8612813357       -3.3852859721        0.1504886172
 C          4.2323722505       -2.4971415301        1.2292203864
 H          3.2735166047       -2.0301815494        0.9945472230
 H          4.0350700106       -3.2880618941        1.9555824392
 C          5.1779498208       -1.4652317450        1.8621017015
 H          5.2947961139       -1.6869718583        2.9248487756
 H          6.1662558765       -1.5670400036        1.4141377166
 C          4.7139860709       -0.0045922751        1.7629850170
 H          5.5882894475        0.6520469218        1.8237074672
 H          4.0813248365        0.2360729086        2.6231335218
 H          3.6455964974       -2.2742196337       -1.6208279330
 H          5.2422291326       -2.8419301415       -2.0977815206
 H          6.0996621993       -0.8326968421       -0.5646425359
 H          5.4914544416       -0.5368066678       -2.2023225918
 O          3.3722098883        0.4571733813       -1.7414393367
 C          2.2478739354        1.2588152149       -1.5646317944
 O          1.6762206830        1.5404729347       -2.6324443638
 O          2.4648171751        1.6049528410        2.0243501846
 C          0.7064475880        2.4688787007        0.0980503140
 C         -0.2595293361        1.6052904558        0.8725543879
 C         -0.8831899481        2.0862581949        2.0185364298
 C         -1.7561690515        1.2892289432        2.7363382937
 C         -2.0399455690        0.0039332035        2.3108614149
 C         -1.4253986887       -0.4853057557        1.1646188942
 C         -0.5350863495        0.3099896519        0.4577121992
 H         -0.0548657905       -0.0912973843       -0.4235725426
 N         -1.7024609242       -1.7863843965        0.6877049800
 S         -2.5775308760       -1.8679061362       -0.7395291178
 O         -2.8085118536       -3.2758478818       -0.9726592397
 O         -1.8863586270       -1.1404421031       -1.7709419315
 C         -4.1212684563       -1.0649082419       -0.3412888395
 C         -5.1977533546       -1.8374985443        0.0492416846
 C         -6.3727873301       -1.2081369628        0.4278495615
 C         -6.4468217271        0.1766189377        0.4206126122
 C         -5.3561421482        0.9382887583        0.0297653907
 C         -4.1795092435        0.3146734345       -0.3547086774
 H         -3.3149967424        0.8753161072       -0.6715095693
 H         -5.4130355027        2.0147756172        0.0225054773
 H         -7.3601586746        0.6662672550        0.7193699678
 H         -7.2235149333       -1.7980851286        0.7286292995
 H         -5.0946962175       -2.9105815768        0.0354891530
 H         -2.1431233364       -2.3808356949        1.3770636309
 H         -2.7220042511       -0.6229544696        2.8655759658
 H         -2.2220452945        1.6718094102        3.6312191400
 H         -0.6589146624        3.0867069916        2.3574711843
 H          1.0624904549        3.2488976382        0.7922970218
 C          0.0363543020        3.1794494959       -1.0654266791
 C         -1.0562548359        2.5615688176       -1.8792679631
 C         -1.3711932742        3.6857865077       -0.9410888638
 H         -1.6069459394        4.6515792470       -1.3614265882
 H         -1.9108700476        3.4506933390       -0.0359154340
 H         -1.0497832211        2.7504254890       -2.9419814696
 H         -1.3698841748        1.5573158198       -1.6367272521
 H          0.7358969312        3.8048116856       -1.6094913988
