  62
        -98.94489173
 C         -1.9393965818       -0.4471876798       -0.6555137732
 C         -2.9929177788       -1.2895072912       -0.2251215187
 C         -4.3400255301       -0.7131498694       -0.2906602499
 C         -4.5081202747        0.5376790691       -0.7572469891
 C         -5.8220017287        1.2554016384       -0.9090678631
 C         -6.3157370005        1.9333206191        0.3764365018
 C         -6.8326521409        0.9820275659        1.4564352264
 H         -7.3433829580        1.5930725566        2.2033637308
 H         -7.5746257770        0.3108902835        1.0226921506
 C         -5.7383745002        0.1620855092        2.1540366421
 H         -4.7645817809        0.6194914994        1.9638806293
 H         -5.8979217370        0.1869165806        3.2343779247
 C         -5.6852848718       -1.3078329320        1.7374713962
 H         -4.8542211592       -1.7837192805        2.2641099559
 H         -6.6071344563       -1.8083977731        2.0416762875
 C         -5.4822789501       -1.5306427077        0.2330012881
 H         -5.2385600008       -2.5835606017        0.0718363163
 H         -6.3981742361       -1.2966130719       -0.3090349926
 H         -5.5046922277        2.5416779060        0.7835224494
 H         -7.1285604275        2.6076566811        0.0970236416
 H         -5.6683683424        2.0262752689       -1.6673349690
 H         -6.5803319093        0.5597825949       -1.2696457927
 O         -3.4703772916        1.3100577003       -1.1760360680
 C         -2.1618389578        0.8492414818       -1.1192004232
 O         -1.3129448276        1.6735457644       -1.5083375824
 O         -2.8147199740       -2.4643662053        0.1938266855
 C         -0.5162945133       -0.9759083115       -0.6058979209
 C          0.3161733093       -0.1016611351        0.2978995498
 C         -0.0903262895        0.0585096855        1.6213400428
 C          0.6131992385        0.8751002136        2.4836457802
 C          1.7456749079        1.5421338275        2.0483929383
 C          2.1633304642        1.3866340913        0.7328780236
 C          1.4533590301        0.5623461368       -0.1318558319
 H          1.7907165642        0.4776462302       -1.1505373557
 N          3.2969937715        2.0692075001        0.2635662689
 S          4.4440014039        1.2906864440       -0.6686382048
 O          5.5872494604        2.1761782275       -0.6469294603
 O          3.9097988346        0.9696981915       -1.9667110732
 C          4.8148560005       -0.1978650734        0.2407215289
 C          5.7099583812       -0.1173660488        1.2900413941
 C          5.9593734970       -1.2498482736        2.0476043524
 C          5.3052213155       -2.4360324988        1.7503561107
 C          4.4097996771       -2.5000437990        0.6941357979
 C          4.1589343838       -1.3713734823       -0.0705147997
 H          3.4731616349       -1.3844314575       -0.9012421177
 H          3.9034450903       -3.4235608988        0.4625711848
 H          5.4959901999       -3.3169095390        2.3428446824
 H          6.6589856693       -1.2045102799        2.8666104931
 H          6.2044739879        0.8213953243        1.4803969874
 H          3.7397493893        2.6611949371        0.9510512586
 H          2.2930595038        2.1886484528        2.7174231668
 H          0.2810602415        0.9940147761        3.5039372795
 H         -0.9770132194       -0.4607149300        1.9588591503
 H         -0.5951260828       -1.9719237465       -0.1455599486
 C          0.0429423544       -1.1305672355       -2.0034169126
 C          1.0951463829       -2.1606029077       -2.2813280193
 C         -0.2999997245       -2.3573360006       -2.7922416354
 H         -0.4843690792       -2.2535524202       -3.8510046243
 H         -0.9207086773       -3.0991440355       -2.3112346013
 H          1.8755521021       -1.9218640928       -2.9890507414
 H          1.4150290415       -2.7788429898       -1.4558863909
 H          0.0911615913       -0.1922604424       -2.5452008914
