  62
        -98.93817954
 C         -1.7801399843       -0.2722652853       -0.8542146573
 C         -2.9287504528        0.5400838718       -1.0283726661
 C         -4.2180804953       -0.0992113286       -0.7104023693
 C         -4.2446011169       -1.3740524580       -0.2849942696
 C         -5.4806686416       -2.1176242591        0.1292767813
 C         -5.7458629851       -1.9616903154        1.6332734559
 C         -5.6876630339       -0.5151427551        2.1243268987
 H         -4.6649070899       -0.1449681351        2.0218029390
 H         -5.9200410875       -0.5243175104        3.1914894661
 C         -6.6470964184        0.4400407443        1.4007321646
 H         -7.1446156148        1.0665530631        2.1441594169
 H         -7.4220856143       -0.1311504607        0.8883091930
 C         -5.9711376202        1.3834261339        0.4040864467
 H         -5.1340407548        1.8908266914        0.8902253446
 H         -6.6953624860        2.1505300874        0.1169104382
 C         -5.4568785523        0.7336805958       -0.8867094807
 H         -5.1811424352        1.5379686196       -1.5752275975
 H         -6.2542921819        0.1462096439       -1.3463025064
 H         -4.9953553308       -2.5383416158        2.1787876379
 H         -6.7273359693       -2.3841957112        1.8562162272
 H         -6.3300787503       -1.7456454143       -0.4403860997
 H         -5.3375139231       -3.1753742999       -0.0978105036
 O         -3.1231220735       -2.1248495633       -0.1373701401
 C         -1.8744646804       -1.5940504413       -0.4088655838
 O         -0.9314729077       -2.3907271242       -0.2277275027
 H          2.1150837012       -0.1176727664       -0.1561003406
 C          1.5582292766        0.6108531675        0.4127006234
 C          0.2435890211        0.8894009228        0.0693522274
 C         -0.4669759315        1.8081736217        0.8343256907
 C          0.1317307898        2.4299996721        1.9149894305
 C          1.4533889212        2.1723862670        2.2344578275
 C          2.1739825662        1.2605888429        1.4729768854
 N          3.5179065835        0.9781894942        1.7553490241
 S          4.6000816624        0.8380423087        0.4816908266
 O          5.8862679222        1.1650579448        1.0581836665
 O          4.1845877760        1.6333741611       -0.6489767604
 C          4.5774324200       -0.8920513260        0.0667499404
 C          4.3037196397       -1.2840482442       -1.2284501723
 C          4.3066843263       -2.6357689839       -1.5344225341
 C          4.5833634175       -3.5662688766       -0.5449218459
 C          4.8599917858       -3.1559361193        0.7506438283
 C          4.8585032240       -1.8062419721        1.0627146960
 H          5.0729473693       -1.4482540604        2.0558167129
 H          5.0745196499       -3.8838186453        1.5165021929
 H          4.5825557040       -4.6175657250       -0.7860347907
 H          4.0904033956       -2.9561878174       -2.5410206494
 H          4.0887901017       -0.5284113782       -1.9681312008
 H          3.9093782477        1.5033688202        2.5237059902
 H          1.9246548055        2.6741499871        3.0660747734
 H         -0.4319081441        3.1368958587        2.5053841543
 H         -1.4867720864        2.0395815998        0.5672275831
 C         -0.3660601929        0.2103161001       -1.1298856458
 H          0.2183050934       -0.7054373980       -1.3152760185
 C         -0.2576840372        1.0670570941       -2.3848698667
 C         -0.0745812039        2.5512100456       -2.3631534184
 C          1.0575938273        1.6675243053       -2.7874958149
 H          1.3319305355        1.6473474748       -3.8318479080
 H          1.8957778957        1.5709278951       -2.1118363252
 H         -0.0052658397        3.0414622987       -1.4048481749
 H         -0.5966817903        3.1317392846       -3.1082740469
 H         -0.8736265426        0.6749524479       -3.1885028682
 O         -2.9058857632        1.7336178978       -1.4217794458
