  62
        -98.94602133
 C         -1.5207260946       -1.3095364694        0.4798048961
 C         -1.4805331371       -0.2272179578       -0.4331788234
 C         -2.2585328905        0.9565948006       -0.0444440916
 C         -2.8817061189        0.9876391068        1.1473043571
 C         -3.6840856964        2.1358522493        1.6969983007
 C         -5.1428960331        2.1607828928        1.2205184338
 C         -5.3422737161        2.5706892656       -0.2391349011
 H         -6.4095774240        2.7555163898       -0.3762876646
 H         -4.8231459487        3.5114068988       -0.4249669332
 C         -4.8881269710        1.5179621214       -1.2599812874
 H         -4.7837053759        0.5505348302       -0.7632990239
 H         -5.6564438117        1.4011367532       -2.0276368150
 C         -3.5790852477        1.8513950362       -1.9756644722
 H         -3.7136347187        2.7493122389       -2.5826579004
 H         -3.3368959378        1.0237105213       -2.6468365692
 C         -2.3819203493        2.0692431695       -1.0404130951
 H         -1.4714798183        2.0682265210       -1.6429945279
 H         -2.4731192524        3.0291583678       -0.5328199175
 H         -5.5811591701        1.1736805788        1.3854689762
 H         -5.6802054784        2.8716599410        1.8526459868
 H         -3.6793322409        2.0271997839        2.7838535490
 H         -3.2005811216        3.0787731646        1.4402511670
 O         -2.8314334112       -0.0477218040        2.0290705972
 C         -2.1793724300       -1.2278333633        1.7053675257
 O         -2.2419595652       -2.1091431032        2.5880901383
 O         -0.8334417090       -0.2458082179       -1.5101956600
 C         -0.8033400666       -2.6036290008        0.1416971697
 C          0.6621471991       -2.3362133015       -0.1015583387
 C          1.3708024458       -2.8702864982       -1.1693447106
 C          2.7140179996       -2.5784714539       -1.3360245149
 C          3.3786621463       -1.7555550330       -0.4460913531
 C          2.6796287698       -1.2202500025        0.6285933683
 C          1.3364456578       -1.5169008534        0.7956677757
 H          0.7946744314       -1.0992037483        1.6360648173
 N          3.3426073151       -0.3796423553        1.5447743979
 S          4.1605157132        0.9452565205        0.9269527688
 O          5.3679226914        0.4954510052        0.2814710525
 O          4.3344572357        1.8375954421        2.0510146558
 C          3.0574822738        1.6682269932       -0.2714795079
 C          3.2054241361        1.3701160863       -1.6104842770
 C          2.3099216114        1.9115048807       -2.5183499051
 C          1.2904750126        2.7381003824       -2.0747320395
 C          1.1546093538        3.0270784231       -0.7257348831
 C          2.0414297153        2.4823871889        0.1873688133
 H          1.9719660981        2.6888317508        1.2438652261
 H          0.3591851284        3.6690076985       -0.3823558523
 H          0.5973737752        3.1607034762       -2.7853155945
 H          2.4074319646        1.6844249462       -3.5675966835
 H          4.0174194069        0.7322231998       -1.9177577061
 H          2.7567616164       -0.0909277250        2.3150624888
 H          4.4230935151       -1.5162558976       -0.5635554600
 H          3.2512898780       -2.9984043884       -2.1726585643
 H          0.8709449838       -3.5113925624       -1.8764289628
 H         -0.8896339278       -3.2439441068        1.0321006324
 C         -1.4937327134       -3.2880223892       -1.0201902260
 C         -1.4717439042       -4.7812281055       -1.1417602333
 C         -2.7381155085       -4.0792133490       -0.7557120902
 H         -3.5431858842       -4.0315945378       -1.4736151642
 H         -3.0723299503       -4.1488948187        0.2696646864
 H         -1.4111713730       -5.2187421690       -2.1268737360
 H         -0.9496251290       -5.3382354013       -0.3784612000
 H         -1.4601478159       -2.6978894776       -1.9287635562
