  62
        -98.94940597
 C         -0.4519974786       -1.8430207861       -0.1232817930
 C         -1.6247530462       -1.9398234983        0.6604900216
 C         -2.7738512286       -1.1580855179        0.1915314439
 C         -2.6610762238       -0.4070844376       -0.9194605934
 C         -3.7686656772        0.3815507068       -1.5669119772
 C         -4.0135362654        1.7708092605       -0.9637568271
 C         -4.6516651780        1.7784392202        0.4252935796
 H         -4.9519511193        2.8073510893        0.6341877758
 H         -5.5574229559        1.1710360230        0.4134094760
 C         -3.7264275032        1.2988810734        1.5528098444
 H         -3.7974862228        1.9845403903        2.4008573492
 H         -2.6842653369        1.3257791165        1.2230139267
 C         -4.0439675711       -0.1016952435        2.0772500242
 H         -5.0246549794       -0.0980531094        2.5592380098
 H         -3.2975037851       -0.3576486697        2.8340283344
 C         -4.0321161446       -1.1982768051        1.0046522034
 H         -4.0710275397       -2.1680791915        1.5073607206
 H         -4.9067259666       -1.1025561647        0.3609581376
 H         -4.6762190424        2.3088489941       -1.6459129026
 H         -3.0666210264        2.3125736291       -0.9249646116
 H         -4.6928547305       -0.1964562147       -1.5253437384
 H         -3.4860489187        0.5062317825       -2.6144352245
 O         -1.5058671993       -0.3187576095       -1.6302701302
 C         -0.3700867458       -1.0169133101       -1.2442907313
 O          0.6220030922       -0.8298682708       -1.9720703445
 O         -1.7132649850       -2.6611726806        1.6922376132
 C          0.7679507512       -2.6512863133        0.2707669203
 C          1.9719926616       -1.7696188530        0.4918450539
 C          3.2667905462       -2.1887630241        0.2072980456
 C          4.3446378055       -1.3564565615        0.4518597343
 C          4.1571172648       -0.0883722263        0.9702455947
 C          2.8665810612        0.3390263991        1.2604576116
 C          1.7912304155       -0.5044394121        1.0339266031
 H          0.7964416838       -0.1608003769        1.2770246233
 N          2.6318496396        1.6205641158        1.7860108806
 S          1.3065108669        2.4939427495        1.2781401124
 O          1.6269262280        3.8613142058        1.6374581561
 O          0.0977195184        1.9697915357        1.8649695554
 C          1.2235812359        2.3679558750       -0.4990014729
 C          2.3719540823        2.2837541418       -1.2589573081
 C          2.2566112011        2.2401585179       -2.6386204185
 C          1.0068683651        2.2954381984       -3.2333913996
 C         -0.1362108125        2.3934839879       -2.4578360848
 C         -0.0257101977        2.4277548111       -1.0785554082
 H         -0.8865414192        2.4829156738       -0.4297519649
 H         -1.1106484160        2.4265045423       -2.9187392506
 H          0.9212204002        2.2528889868       -4.3077020481
 H          3.1436935125        2.1555104559       -3.2455367461
 H          3.3371461635        2.2394490509       -0.7817322855
 H          3.4495361585        2.2066125876        1.8716651591
 H          4.9967899187        0.5649690675        1.1528481187
 H          5.3439624309       -1.6961236819        0.2266793207
 H          3.4312111097       -3.1698330286       -0.2070429190
 H          0.5096623608       -3.1220035359        1.2322492195
 C          1.0162022028       -3.7429569069       -0.7527302193
 C          1.5519307650       -5.0785817662       -0.3333706848
 C          0.1212448806       -4.9448497547       -0.7573627387
 H         -0.1802085266       -5.3610323052       -1.7068315881
 H         -0.6456396385       -4.9915784638        0.0022292457
 H          2.2336486021       -5.5915421175       -0.9951062191
 H          1.7538144911       -5.2312685351        0.7161832593
 H          1.3234873061       -3.3445031516       -1.7132591918
