  62
        -98.94569365
 C         -1.4501020462       -1.2818840047        0.1975728694
 C         -1.5589174945       -0.0358164864       -0.4693656774
 C         -2.6728077742        0.8222186477       -0.0408732454
 C         -3.4909504347        0.4258860369        0.9492526326
 C         -4.6480798193        1.2050317705        1.5135270789
 C         -5.9469740524        1.0681585819        0.7071919932
 C         -5.9624489976        1.8029603680       -0.6339340784
 H         -6.9963650082        1.8064178247       -0.9848241601
 H         -5.6671114137        2.8414365959       -0.4804986174
 C         -5.0765916413        1.1681737111       -1.7150022805
 H         -4.8296213505        0.1437118183       -1.4274484759
 H         -5.6316371838        1.1130674218       -2.6541350943
 C         -3.7800663676        1.9272975658       -1.9985973701
 H         -4.0133696647        2.9111554646       -2.4118410254
 H         -3.2138699891        1.3712352421       -2.7498009842
 C         -2.8803017998        2.1149570041       -0.7703298520
 H         -3.3054672891        2.8635230608       -0.1014793078
 H         -1.9007558800        2.4686720695       -1.1029610546
 H         -6.7557956640        1.4660889865        1.3244134698
 H         -6.1451286543        0.0063242603        0.5438088995
 H         -4.8235121984        0.8146773913        2.5185538097
 H         -4.3752791028        2.2579584240        1.5943112815
 O         -3.3407925434       -0.7674891553        1.5839426787
 C         -2.3334810859       -1.6438193855        1.2181360723
 O         -2.3281337441       -2.7110990495        1.8664617441
 O         -0.7819295771        0.3614583854       -1.3762293961
 C         -0.3677564805       -2.3010576684       -0.1064868325
 C          0.9180097625       -2.0289629643        0.6434660915
 C          1.7778318426       -3.0797609272        0.9494689938
 C          2.9626792601       -2.8485767420        1.6222314752
 C          3.3219568925       -1.5648108587        1.9932992369
 C          2.4708774981       -0.5079567245        1.6948319599
 C          1.2770283336       -0.7468860010        1.0266076868
 H          0.6250514582        0.0865331765        0.8208021216
 N          2.7964154572        0.8042264065        2.0719252767
 S          2.5474137894        2.0622345361        0.9917815996
 O          3.3770286868        3.1328927705        1.5056300329
 O          1.1425942977        2.3566174650        0.8803790218
 C          3.2360364212        1.4565635336       -0.5373116647
 C          4.6138095682        1.4786223988       -0.6511489648
 C          5.2049404947        0.9471898269       -1.7844420745
 C          4.4107541203        0.3958698887       -2.7790333981
 C          3.0313572950        0.3849750027       -2.6500713271
 C          2.4300932956        0.9188103306       -1.5191463315
 H          1.3574340817        0.9196426905       -1.4000358442
 H          2.4102564462       -0.0389269519       -3.4233417072
 H          4.8686112291       -0.0249422221       -3.6604005116
 H          6.2779748984        0.9606864986       -1.8879151093
 H          5.1914337730        1.9268893361        0.1411263884
 H          3.6942789882        0.8956359029        2.5251075635
 H          4.2457085977       -1.3809753477        2.5201974895
 H          3.6154672682       -3.6742746824        1.8600912197
 H          1.5040613668       -4.0850582063        0.6688999812
 H         -0.7580140363       -3.2642634951        0.2527152251
 C         -0.0706997489       -2.4295334158       -1.5902142122
 C          0.3083759152       -3.7573322682       -2.1699804884
 C         -1.0338297404       -3.1631021151       -2.4725695197
 H         -1.2242605788       -2.7742596263       -3.4614141256
 H         -1.9031780178       -3.6014213853       -2.0032943791
 H          1.0489171540       -3.7819293088       -2.9543024573
 H          0.3381695097       -4.6101703923       -1.5093038118
 H          0.4005404943       -1.5474286910       -2.0028748113
