  62
        -98.94457465
 C         -1.7346854728       -1.0743854299       -0.0385702071
 C         -2.9486794639       -1.0963352608        0.6997640586
 C         -4.1215768932       -0.4929006752        0.0563667658
 C         -3.9978331489        0.0194663859       -1.1811045737
 C         -5.0934530644        0.7085441088       -1.9402050566
 C         -5.0850576145        2.2208343483       -1.6765684895
 C         -5.0163579295        2.5892579074       -0.1943639490
 H         -4.0515426295        2.2719126210        0.2085844762
 H         -5.0475094446        3.6790628937       -0.1284961041
 C         -6.1430988248        1.9928499041        0.6609276538
 H         -6.5294073331        2.7712593937        1.3222923296
 H         -6.9662275704        1.6751872354        0.0198146935
 C         -5.7140180126        0.8247947990        1.5510170704
 H         -6.5193087971        0.6273583983        2.2635555975
 H         -4.8299517200        1.1092126911        2.1275001979
 C         -5.4129865361       -0.4921212821        0.8244407302
 H         -5.3115407796       -1.2741283547        1.5825809055
 H         -6.2494855514       -0.7519521532        0.1724828661
 H         -5.9839272046        2.6536085257       -2.1194377556
 H         -4.2167710908        2.6554749464       -2.1774673193
 H         -6.0522452138        0.2838230202       -1.6492698767
 H         -4.9370962241        0.5336710294       -3.0060216580
 O         -2.8290824115        0.0071009365       -1.8665746107
 C         -1.6688271694       -0.5210808717       -1.3172717917
 O         -0.6807342099       -0.4239858609       -2.0737601496
 O         -3.0449910508       -1.6074504932        1.8472973307
 C         -0.5268786725       -1.7039589168        0.6346354647
 C          0.3919320926       -0.6755674980        1.2486747227
 C          0.7466127523       -0.7397159293        2.5909092108
 C          1.6264597704        0.1806951419        3.1349612475
 C          2.1678844138        1.1859586326        2.3533659907
 C          1.8117328020        1.2619362951        1.0138187662
 C          0.9384640616        0.3334292112        0.4685007026
 H          0.6783064171        0.3941451815       -0.5778797747
 N          2.3746200703        2.2735612473        0.1991889219
 S          4.0102465558        2.0613546523       -0.1087893504
 O          4.7441382298        2.2997470356        1.1079110150
 O          4.3215406911        2.9262430751       -1.2239455624
 C          4.1460285115        0.3480963186       -0.5833117354
 C          3.8969063540        0.0071701347       -1.8974084528
 C          3.9129052608       -1.3303394501       -2.2572751780
 C          4.1642481159       -2.2983840681       -1.2974440211
 C          4.4050059699       -1.9402056033        0.0199178961
 C          4.3946772161       -0.6039043102        0.3847496606
 H          4.5788634117       -0.2831494392        1.3968243123
 H          4.5948045753       -2.6961529126        0.7646310457
 H          4.1740915544       -3.3391497572       -1.5816811974
 H          3.7207958422       -1.6120920935       -3.2802686068
 H          3.7057165369        0.7898793474       -2.6143399910
 H          1.8908137320        2.3632769646       -0.6843545952
 H          2.8669599810        1.9027072737        2.7528704779
 H          1.8930732761        0.1157375369        4.1787826418
 H          0.3214152885       -1.5140550266        3.2122238927
 H         -0.9435106383       -2.3104527369        1.4499227421
 C          0.2684948518       -2.6149414310       -0.2818473166
 C          1.0438542736       -3.7486093367        0.3153898070
 C         -0.1908431844       -4.0256945611       -0.4875879501
 H         -0.0859933729       -4.4620170795       -1.4693692770
 H         -1.0819332036       -4.3412872006        0.0356432714
 H          2.0014551544       -3.9964213479       -0.1136009477
 H          0.9906507151       -3.8824985163        1.3849354301
 H          0.6980423361       -2.1007331385       -1.1319205405
