  62
        -98.94517699
 C          2.5221703107       -0.3083369369       -0.0486091352
 C          2.2067342685       -1.3176272615        0.8905738361
 C          1.5587892777       -2.5202144382        0.3543762548
 C          1.3152550443       -2.6008471358       -0.9665604048
 C          0.6620382006       -3.7688153109       -1.6477603082
 C         -0.8562166755       -3.5875844760       -1.7682407660
 C         -1.5463726206       -3.2007175624       -0.4600235422
 H         -1.2518316999       -2.1839616289       -0.1891302838
 H         -2.6206802612       -3.1714653732       -0.6593896040
 C         -1.2720223562       -4.1432731265        0.7194712975
 H         -2.2121832651       -4.3208415765        1.2457629200
 H         -0.9161265837       -5.1069650723        0.3519371234
 C         -0.2843205662       -3.5928076234        1.7504565482
 H         -0.5663451255       -2.5673893920        2.0074967888
 H         -0.3680190187       -4.1951075615        2.6595407693
 C          1.1915843393       -3.6021236618        1.3302540561
 H          1.7950200210       -3.4150956896        2.2236441034
 H          1.4564624728       -4.5860336156        0.9363686679
 H         -1.0539376611       -2.7963691578       -2.4951021575
 H         -1.2831857834       -4.5188332702       -2.1467006066
 H          1.0859627635       -3.8561905418       -2.6500235266
 H          0.8864382488       -4.6756295999       -1.0886413729
 O          1.6375079335       -1.6139835358       -1.8406074758
 C          2.1989363974       -0.4259344453       -1.4007071186
 O          2.3862624561        0.4182401842       -2.2980892841
 O          2.4635798306       -1.2174556465        2.1233818827
 C          3.1050797584        1.0015660887        0.4530296539
 C          2.0830076358        2.0952865003        0.2569199150
 C          2.3771963384        3.3674264615       -0.2127047577
 C          1.3683169267        4.3028723178       -0.3832052771
 C          0.0489846990        3.9861862136       -0.1173645324
 C         -0.2530037484        2.7157858258        0.3600757849
 C          0.7614047348        1.8022534193        0.5731309681
 H          0.5135392179        0.8266928715        0.9683182282
 N         -1.6044173539        2.3268469617        0.5646759660
 S         -1.9589777761        0.6973136195        0.3821490121
 O         -1.7111883398       -0.0466832205        1.6022035530
 O         -1.3098843123        0.2340484509       -0.8172498176
 C         -3.7180335043        0.7998626012        0.1096353148
 C         -4.5997686173        0.3631855001        1.0786196629
 C         -5.9620866885        0.4782140247        0.8475686572
 C         -6.4162477888        1.0276280317       -0.3413328735
 C         -5.5184776781        1.4602322526       -1.3065802582
 C         -4.1563044700        1.3464590104       -1.0814743643
 H         -3.4197879641        1.6605284960       -1.8030552654
 H         -5.8747822319        1.8846448707       -2.2313808182
 H         -7.4763034761        1.1175028081       -0.5187135074
 H         -6.6616381189        0.1398298932        1.5948896238
 H         -4.1996514507       -0.0620595500        1.9850508096
 H         -2.0414475072        2.7277890011        1.3818292422
 H         -0.7415139696        4.7008808598       -0.2792847787
 H          1.6146431901        5.2879672546       -0.7493751037
 H          3.3956877901        3.6257239269       -0.4537081147
 H          3.2484492227        0.8596920398        1.5356721656
 C          4.4449826985        1.2987266137       -0.1838227520
 C          5.4706273862        2.1012624651        0.5584891033
 C          5.6697739947        0.6294969339        0.3616795738
 H          6.4266616628        0.2964239680       -0.3321714437
 H          5.5390791166       -0.0242518403        1.2118431439
 H          6.0967569255        2.7799887968       -0.0005198774
 H          5.2137475739        2.4481978061        1.5479790220
 H          4.3757050951        1.4183541331       -1.2588345338
