  62
        -98.94267444
 C         -1.4082202762       -1.0924583902       -0.7872210045
 C         -1.0521741601       -1.9412978864        0.2863827963
 C          0.1959053553       -2.7097254439        0.1273721292
 C          0.9465471792       -2.5289419446       -0.9721898958
 C          2.2249730253       -3.2211311377       -1.3795627126
 C          3.2632404521       -3.5226206266       -0.2935955511
 C          3.3939267165       -2.4519700060        0.7993909807
 H          4.4443338954       -2.1721810889        0.9035640258
 H          2.8438748890       -1.5490182119        0.5265004833
 C          2.8907424810       -2.9256509631        2.1639928822
 H          3.2285580741       -3.9503936462        2.3374866207
 H          3.3345293625       -2.2936801894        2.9371258876
 C          1.3754995400       -2.8513235114        2.3374746464
 H          1.0654026792       -1.8023785825        2.3206744428
 H          1.1250358029       -3.2484234222        3.3246521936
 C          0.5563742053       -3.6064531833        1.2765408318
 H          1.0754105764       -4.5024795269        0.9429358923
 H         -0.3921208572       -3.9037751897        1.7325190681
 H          3.0355810100       -4.4797946170        0.1734094701
 H          4.2220841750       -3.6415252206       -0.8017749857
 H          1.9541248360       -4.1558919510       -1.8804672526
 H          2.6705746087       -2.5715251843       -2.1374002619
 O          0.5898794266       -1.6571436476       -1.9597663137
 C         -0.5770119521       -0.9164634809       -1.8905915658
 O         -0.7579189026       -0.1486875461       -2.8578541291
 H         -0.5441899883        1.2496131701       -0.1926979238
 C         -1.2990072951        1.3979468342        0.5660622670
 C         -2.5048524827        0.7164608528        0.4610985788
 C         -3.4759071929        0.9338641409        1.4287577419
 C         -3.2216301299        1.7861626267        2.4904435410
 C         -1.9983958270        2.4181362698        2.6200706870
 C         -1.0255358037        2.2171849700        1.6469907616
 N          0.2323715891        2.8343290011        1.7232183762
 S          1.5768948984        1.9939516047        1.1805041678
 O          1.4557296326        0.5736033084        1.4056693344
 O          2.6928818322        2.6435375144        1.8386866317
 C          1.6584093716        2.3502971131       -0.5608673402
 C          1.3469543163        3.6212486162       -1.0013867171
 C          1.4351123811        3.8981262879       -2.3559364369
 C          1.8345339837        2.9082126438       -3.2410142811
 C          2.1523125850        1.6399829274       -2.7820471180
 C          2.0668752444        1.3580128009       -1.4285891826
 H          2.2883729837        0.3780677751       -1.0344733792
 H          2.4505404733        0.8649854234       -3.4696369995
 H          1.8947228458        3.1223951642       -4.2963768201
 H          1.1875643369        4.8827744035       -2.7188107217
 H          1.0334535967        4.3627761771       -0.2856335478
 H          0.4169960850        3.3342365728        2.5807418035
 H         -1.7927137439        3.0559928601        3.4661797021
 H         -3.9813705162        1.9436854199        3.2410344133
 H         -4.4243100377        0.4265980116        1.3616131780
 C         -2.6587572622       -0.2335855734       -0.7022673863
 H         -2.6818441740        0.3601793866       -1.6280556889
 C         -3.9056117644       -1.0881748266       -0.6351527070
 C         -5.2084725660       -0.5586655460       -1.1525768963
 C         -4.4812453462       -1.6286589492       -1.9084390079
 H         -4.8853189711       -2.6297869761       -1.9071415239
 H         -3.9853906940       -1.3595204829       -2.8298709291
 H         -6.1166870898       -0.8270720696       -0.6344331888
 H         -5.2137540400        0.4381429971       -1.5668204839
 H         -3.9215782686       -1.7338586742        0.2349719135
 O         -1.7528197646       -2.0749895890        1.3237029051
