  62
        -98.94266326
 C          2.0596149382        1.4114504003        0.1087172377
 C          1.7208680108        0.2813336207       -0.6728517535
 C          2.8222220504       -0.6491858789       -0.9583543800
 C          4.0610476796       -0.3602595322       -0.5194141191
 C          5.2620960355       -1.2413066254       -0.7027589540
 C          5.4377607114       -2.1981100455        0.4850837099
 C          4.1601828333       -2.9408974226        0.8762318767
 H          4.4131801174       -3.6063699559        1.7043525686
 H          3.4309064072       -2.2205316622        1.2536896380
 C          3.5248125600       -3.7565494581       -0.2585108124
 H          4.2572926194       -3.9259939435       -1.0484809387
 H          3.2383751007       -4.7348685736        0.1328490050
 C          2.2650970428       -3.1310233036       -0.8608821104
 H          1.5736628091       -2.8600795743       -0.0587310187
 H          1.7742353486       -3.8846876365       -1.4824435767
 C          2.4902531990       -1.8913794095       -1.7359917584
 H          3.2591355961       -2.1003053162       -2.4824954468
 H          1.5538459056       -1.6761329680       -2.2595851505
 H          6.2182539629       -2.9187523371        0.2343336836
 H          5.7747219093       -1.6194648320        1.3482778250
 H          5.1531197290       -1.8070545102       -1.6259769380
 H          6.1459257284       -0.6057786968       -0.7795843018
 O          4.3541903919        0.7590568181        0.1914385804
 C          3.3621898889        1.6601819936        0.5409260470
 O          3.7559478986        2.6235548266        1.2283489778
 H         -1.6984047105        2.6262939339       -0.1733098932
 C         -1.5011674603        1.9080744798        0.6077151974
 C         -0.2069831761        1.6962773804        1.0577961547
 C         -0.0037227824        0.7596258930        2.0686994138
 C         -1.0551739757        0.0282561877        2.5856296448
 C         -2.3386804831        0.2127268293        2.1003867004
 C         -2.5555650663        1.1613255841        1.1126480544
 N         -3.8748746068        1.3031289573        0.5931643580
 S         -4.0979857238        0.3673059226       -0.7994251316
 O         -3.2567547208        0.8437238471       -1.8769757571
 O         -5.5189306926        0.4096987359       -1.0742445132
 C         -3.6192208311       -1.2630936093       -0.2826796731
 C         -4.5832313974       -2.0797057000        0.2762100495
 C         -4.2201991776       -3.3437783309        0.7110327486
 C         -2.9049748863       -3.7644112066        0.5815737394
 C         -1.9512943311       -2.9305219476        0.0185875210
 C         -2.3042719812       -1.6630828250       -0.4188489046
 H         -1.5773261424       -0.9915028397       -0.8504144450
 H         -0.9273759007       -3.2540569232       -0.0820091631
 H         -2.6197292600       -4.7479393054        0.9206152756
 H         -4.9596923801       -3.9945445342        1.1492190749
 H         -5.5920455551       -1.7078627578        0.3507187254
 H         -4.0860919321        2.2611258344        0.3416913537
 H         -3.1677228323       -0.3646676998        2.4756193987
 H         -0.8740104888       -0.6996647996        3.3615227964
 H          1.0033124814        0.6006288398        2.4309538243
 C          0.9846201062        2.4177996290        0.4795846695
 H          1.4192796537        3.0630222936        1.2569503660
 C          0.6475932521        3.2712357653       -0.7263695564
 C          0.1758714901        4.6824893806       -0.5476188245
 C          1.5509383443        4.4128113938       -1.0788720535
 H          1.7503163202        4.6095128861       -2.1216876243
 H          2.3971772679        4.5899204541       -0.4312168775
 H         -0.5687381254        5.0676821812       -1.2286001963
 H          0.0877960063        5.0573020856        0.4610258419
 H          0.2318481410        2.6926943849       -1.5451926983
 O          0.5600414908        0.0551555110       -1.1040442976
