  62
        -98.94182120
 C         -2.3799516384       -1.0724229721        0.1397095202
 C         -3.6324918094       -0.9270825350        0.7936342193
 C         -4.6088604576       -0.0467989018        0.1443455018
 C         -4.2823391634        0.5784993508       -1.0007129648
 C         -5.1755274072        1.4885595377       -1.7994528240
 C         -5.1942461999        2.9403079605       -1.3018402594
 C         -5.9447824925        3.1684481091        0.0108971921
 H         -6.0661721926        4.2473031571        0.1264895648
 H         -6.9425519303        2.7346609699       -0.0624017546
 C         -5.2305469164        2.6164297298        1.2525547842
 H         -4.1809955943        2.4271853779        1.0145821317
 H         -5.2472904813        3.3671332709        2.0458821059
 C         -5.8476815902        1.3398439493        1.8240034323
 H         -6.8552422037        1.5515842327        2.1885185681
 H         -5.2421529773        1.0177098510        2.6748727744
 C         -5.9238321161        0.1743692331        0.8291187743
 H         -6.1670671168       -0.7346613283        1.3845862541
 H         -6.7083870942        0.3568043992        0.0950396251
 H         -4.1632006761        3.2868927279       -1.1981877633
 H         -5.6705917610        3.5439330729       -2.0779443423
 H         -4.7923963138        1.4804979590       -2.8222588344
 H         -6.1911496275        1.0915574392       -1.8054056080
 O         -3.0672599902        0.4302598535       -1.5890251917
 C         -2.0792775514       -0.3768572334       -1.0330855462
 O         -1.0198228128       -0.3806982314       -1.6882179111
 O         -3.9215328272       -1.5106707321        1.8713849566
 C         -1.3526032401       -1.9670222770        0.8130427496
 C         -0.0494296340       -1.2270093219        0.9665859880
 C          0.0905024431       -0.2952452816        1.9909018589
 C          1.2576470882        0.4320881019        2.1277121725
 C          2.3049753013        0.2534212423        1.2405281686
 C          2.1658706212       -0.6572827857        0.2023866848
 C          1.0020894216       -1.4059338151        0.0827918254
 H          0.8990081609       -2.1025898138       -0.7344942116
 N          3.2163414225       -0.8420335304       -0.7106202086
 S          4.0514691944        0.4938147681       -1.2854719258
 O          3.2379344831        1.6869995503       -1.3017945732
 O          4.6038491900        0.0719507199       -2.5546891117
 C          5.3838596369        0.6802170869       -0.1158502674
 C          5.6140091817        1.9059600377        0.4772952255
 C          6.6622245419        2.0307743936        1.3760058939
 C          7.4586087516        0.9331970337        1.6637538380
 C          7.2167822620       -0.2904092578        1.0572278621
 C          6.1714396134       -0.4211253617        0.1571524451
 H          5.9525747586       -1.3527345094       -0.3370470708
 H          7.8383681566       -1.1417493660        1.2832438817
 H          8.2725949120        1.0322986869        2.3643840134
 H          6.8514729858        2.9817166008        1.8476545176
 H          4.9654019845        2.7307211574        0.2271887872
 H          2.9845939547       -1.4706067558       -1.4662532168
 H          3.2119857103        0.8281825993        1.3318180656
 H          1.3541662925        1.1483898594        2.9295215396
 H         -0.7335620311       -0.1414985051        2.6740907151
 H         -1.7667452668       -2.1399292319        1.8195711845
 C         -1.1854929751       -3.3390065358        0.1768968477
 C         -2.3756812521       -4.0802746355       -0.3524759516
 C         -1.3183714406       -3.5908324630       -1.2939605898
 H         -0.6603532165       -4.3191664174       -1.7460854694
 H         -1.5439935141       -2.7536693318       -1.9356364911
 H         -2.4504423789       -5.1407503592       -0.1653806679
 H         -3.3251049512       -3.5648907581       -0.3416250966
 H         -0.4420474015       -3.9319922904        0.7014154065
