  62
        -98.93897288
 C          2.1713258077        1.0413160300        0.4629111175
 C          2.3069115957        0.2438658512       -0.6971806883
 C          3.0872937002       -0.9987920445       -0.5475065733
 C          3.5761469691       -1.3242029473        0.6615961013
 C          4.4328626031       -2.5079318803        1.0168511079
 C          5.9248791696       -2.1399767854        0.9471904172
 C          6.5655485483       -2.3033635047       -0.4304958154
 H          7.5747442300       -1.8896691798       -0.3701638415
 H          6.6603843474       -3.3672303136       -0.6576710628
 C          5.8229973437       -1.6220103357       -1.5828503024
 H          5.4936139574       -0.6287355831       -1.2727272100
 H          6.5304328100       -1.4868816623       -2.4031536155
 C          4.6226485378       -2.4340038698       -2.0922026254
 H          4.6718156939       -3.4413826842       -1.6791420039
 H          4.6918912045       -2.5410991534       -3.1766624459
 C          3.2451992328       -1.8220185535       -1.7966468749
 H          2.9643007127       -1.1454234848       -2.6100976993
 H          2.4925709757       -2.6182898025       -1.7848606069
 H          6.0299103315       -1.1049747070        1.2823658094
 H          6.4731203939       -2.7687526436        1.6515782544
 H          4.1869214456       -2.7714869218        2.0478122743
 H          4.2048171524       -3.3546276210        0.3761453281
 O          3.3809821604       -0.5485348064        1.7645402897
 C          2.6801611041        0.6414929372        1.6972920541
 O          2.5707011038        1.2387854774        2.7883245176
 H         -0.2084796983        0.6062514645        1.5874373965
 C         -0.7201922114        1.0961494046        0.7668542828
 C         -0.0384175533        2.0542887193        0.0257213259
 C         -0.7031047169        2.6758541137       -1.0220242521
 C         -2.0093068314        2.3298052985       -1.3246752037
 C         -2.6808017930        1.3711054406       -0.5889830500
 C         -2.0272821891        0.7486402800        0.4670494427
 N         -2.7068274407       -0.2192662175        1.2320318588
 S         -3.3691422483       -1.5252323730        0.4049293153
 O         -3.4430553101       -2.5912562849        1.3811337410
 O         -2.6380763710       -1.8136313221       -0.8074763104
 C         -5.0193061388       -0.9821200237        0.0150834352
 C         -5.8363719535       -0.5869719066        1.0563387443
 C         -7.1253191035       -0.1653896452        0.7718523013
 C         -7.5735014168       -0.1488649250       -0.5407548611
 C         -6.7418685526       -0.5519145087       -1.5743202570
 C         -5.4506589409       -0.9737566419       -1.2968219594
 H         -4.7655524305       -1.2895938625       -2.0674733272
 H         -7.0918102282       -0.5383500688       -2.5940180045
 H         -8.5770576074        0.1801191166       -0.7596085546
 H         -7.7748825686        0.1487557729        1.5728486512
 H         -5.4495484363       -0.6187787108        2.0611875975
 H         -2.1703855347       -0.5500674912        2.0217252448
 H         -3.6960334742        1.0970404630       -0.8250688311
 H         -2.5113790324        2.8144765551       -2.1479931663
 H         -0.1953707383        3.4214326310       -1.6110284826
 C          1.3937172237        2.3451541875        0.4057922065
 H          1.3974780264        2.7437465986        1.4308989300
 C          2.0816090782        3.3376401783       -0.5067446479
 C          1.8917672220        4.8086080356       -0.2941639221
 C          3.2034542487        4.1661454078        0.0404412008
 H          4.0542901623        4.3650132670       -0.5937335246
 H          3.4584849905        4.0305060338        1.0817146502
 H          1.8445522932        5.4530420573       -1.1587977196
 H          1.2567642017        5.1172188813        0.5223324927
 H          2.1793039035        2.9724670967       -1.5222833634
 O          1.8104189858        0.5543159019       -1.8112940474
