  62
        -98.93964309
 C         -1.6406511898       -1.4413574699        0.1589485095
 C         -1.4086652698       -0.1647997996       -0.4136901400
 C         -2.6072232699        0.5598622806       -0.8717337196
 C         -3.8224502299        0.0091616405       -0.7082226497
 C         -5.1215773499        0.6662146706       -1.0720821493
 C         -5.6877485298        1.4660691601        0.1095117611
 C         -4.6726323698        2.4017934498        0.7664990114
 H         -5.1918745697        2.9361402194        1.5651282417
 H         -3.8877611697        1.8055333996        1.2380810711
 C         -4.0294315499        3.4145834903       -0.1911395082
 H         -4.6315395900        3.5029976506       -1.0963198381
 H         -4.0208675599        4.3951475200        0.2895701123
 C         -2.5832710499        3.0952134204       -0.5750833184
 H         -1.9906366498        2.9197807501        0.3271474014
 H         -2.1617312300        3.9733500907       -1.0723326981
 C         -2.3919993900        1.9000112409       -1.5168013290
 H         -3.0349707201        2.0147718713       -2.3921105089
 H         -1.3498223000        1.9091804710       -1.8495875891
 H         -6.5428578499        2.0452815902       -0.2435230986
 H         -6.0428213198        0.7622968897        0.8658623008
 H         -4.9648240700        1.3221462010       -1.9261240990
 H         -5.8357034299       -0.1115124993       -1.3478842096
 O         -4.0081303598       -1.2066724398       -0.1344387102
 C         -2.9328072298       -1.9500712500        0.3229408793
 O         -3.2535909997       -3.0336808702        0.8510194589
 H          1.9109394102       -1.0850515398        0.2628388293
 C          1.5513310503       -0.9461617403        1.2684328894
 C          0.3371108004       -1.4968767005        1.6498122293
 C         -0.1190669195       -1.2834961011        2.9472259794
 C          0.6275382905       -0.5473396615        3.8473889397
 C          1.8376800205        0.0019161187        3.4624473998
 C          2.2942352104       -0.1899223807        2.1647860297
 N          3.5259229803        0.3546856395        1.7419763998
 S          3.4592940002        1.5408407701        0.5468428404
 O          4.7674384402        2.1663514801        0.6019610005
 O          2.3427262702        2.4350945899        0.7504997009
 C          3.3292776801        0.6571456007       -0.9882044100
 C          2.3742969900        1.0250875711       -1.9118690498
 C          2.3329003099        0.3589907617       -3.1269475901
 C          3.2425192099       -0.6521079882       -3.3931354606
 C          4.1987849500       -1.0065491286       -2.4524056308
 C          4.2476824901       -0.3443443391       -1.2370910505
 H          4.9751446602       -0.5855821095       -0.4797869607
 H          4.9032094200       -1.7951843685       -2.6637855413
 H          3.2040399998       -1.1679915178       -4.3399941308
 H          1.5873856798        0.6289633820       -3.8580410399
 H          1.6725309100        1.8002454510       -1.6529595594
 H          4.0857539604        0.7091581792        2.5067667899
 H          2.4232884705        0.5835950284        4.1593503500
 H          0.2642907706       -0.3953518719        4.8528192998
 H         -1.0712339095       -1.7041631512        3.2417823193
 C         -0.5133429297       -2.3049264501        0.7022303490
 H         -1.0210499597       -3.0842398704        1.2930752887
 C          0.3058330802       -3.0336335396       -0.3525102114
 C         -0.3687963799       -3.6426423191       -1.5450702716
 C          0.5720183701       -2.4907398690       -1.7222422312
 H          1.5399744200       -2.6822707488       -2.1617056014
 H          0.1678234800       -1.5240202189       -1.9738658207
 H         -0.0560210599       -4.6228192689       -1.8714896821
 H         -1.4279227399       -3.4606526090       -1.6591400515
 H          1.1038163203       -3.6150754298        0.0995527083
 O         -0.2733884599        0.3543782105       -0.5551613598
