  62
        -98.94419687
 C         -1.6856878936       -1.3083691838        0.2613370017
 C         -1.2992286428       -0.2328280328       -0.5684399511
 C         -1.8785361569        1.0830566816       -0.2543286521
 C         -2.7197794063        1.1922656703        0.7881627979
 C         -3.4475377369        2.4215990871        1.2587981249
 C         -4.8339708694        2.5283900714        0.6002930222
 C         -4.8570205600        3.2594352243       -0.7413298506
 H         -4.6742223187        4.3226680548       -0.5726742052
 H         -5.8661210231        3.1598635632       -1.1476875728
 C         -3.8556578466        2.7483126010       -1.7796938937
 H         -4.2015701828        3.0679775978       -2.7644196647
 H         -3.8490380565        1.6569498468       -1.7756114195
 C         -2.4306410268        3.2768780499       -1.5567133506
 H         -2.4565392715        4.0837045479       -0.8247997332
 H         -2.0557700661        3.7130378169       -2.4850026278
 C         -1.4087742699        2.2178907304       -1.1229393874
 H         -0.5707689501        2.7059973627       -0.6111583840
 H         -0.9909279739        1.7333391161       -2.0114160140
 H         -5.5046893539        3.0538167979        1.2831679333
 H         -5.2234503008        1.5148130764        0.4751014713
 H         -3.5802491367        2.3061172012        2.3368323168
 H         -2.8522583027        3.3118765749        1.0781537244
 O         -3.0754824149        0.1259369267        1.5588203416
 C         -2.5541814811       -1.1345817099        1.3358697985
 O         -2.9351031126       -2.0054075869        2.1466049592
 H          0.4376202062       -1.1521915092        1.6237828339
 C          1.0385181846       -1.7233517929        0.9305875807
 C          0.4257994747       -2.5813739914        0.0260992093
 C          1.2300186181       -3.3103322818       -0.8415806741
 C          2.6057623935       -3.1577803739       -0.8205355978
 C          3.2059139436       -2.2616438850        0.0449967497
 C          2.4104748026       -1.5360950686        0.9238791069
 N          2.9643832336       -0.5894043793        1.8126061762
 S          2.5320304162        1.0134201268        1.5690265687
 O          3.2881365856        1.7573263595        2.5548273919
 O          1.1002731034        1.1556968110        1.6238716813
 C          3.1594577711        1.3915218299       -0.0581448010
 C          4.3913380515        2.0107327863       -0.1578153924
 C          4.9271735644        2.2440846437       -1.4134992940
 C          4.2293009816        1.8459021027       -2.5441228661
 C          2.9971095830        1.2224943522       -2.4257447554
 C          2.4512414572        0.9882395524       -1.1722100292
 H          1.4910614989        0.5077124240       -1.0618511435
 H          2.4482523992        0.9093842277       -3.2993758852
 H          4.6467541789        2.0226408579       -3.5228595779
 H          5.8845774741        2.7310672373       -1.5063157082
 H          4.8943439361        2.3044520036        0.7494991330
 H          3.9716122739       -0.6456437021        1.8857004566
 H          4.2763223769       -2.1206060317        0.0422146383
 H          3.2166585130       -3.7301425474       -1.5016523573
 H          0.7774839543       -3.9942245508       -1.5409507085
 C         -1.0810933974       -2.6823006457        0.0388086329
 H         -1.3815782028       -3.2929964443        0.9033865612
 C         -1.6470807101       -3.3063888963       -1.2212559490
 C         -1.8192057538       -4.7916074439       -1.3231519462
 C         -3.0190323186       -3.9064677284       -1.1750348459
 H         -3.6711427032       -3.7705563165       -2.0247380833
 H         -3.5324052477       -3.8898302342       -0.2242978599
 H         -1.5256258804       -5.3893581894       -0.4734794315
 H         -1.6515269789       -5.2662429285       -2.2782442053
 H         -1.3701771594       -2.7581614636       -2.1145168087
 O         -0.5003901565       -0.3660162397       -1.5341666054
