  62
        -98.94378809
 C         -1.8980504281       -1.2461320427        0.3575191990
 C         -1.9268339174       -0.1897199328       -0.5851660459
 C         -3.2631524792        0.3087713108       -0.9432466464
 C         -4.3510667198       -0.2639300928       -0.3967236802
 C         -5.7645202902        0.1818740833       -0.6325502999
 C         -6.2004483490        1.2182151417        0.4127359014
 C         -5.2022200359        2.3602269077        0.6044466463
 H         -5.6280987386        3.0440367505        1.3420492499
 H         -4.2801290357        1.9607257437        1.0331750170
 C         -4.8688546967        3.1347866537       -0.6783418877
 H         -5.6330203627        2.9466640279       -1.4334757228
 H         -4.8892699536        4.2039170482       -0.4564307940
 C         -3.4896911610        2.8281937511       -1.2652905315
 H         -2.7292989181        2.9267722147       -0.4860386500
 H         -3.2720783548        3.5788399818       -2.0298448245
 C         -3.3349192740        1.4492975700       -1.9191535189
 H         -4.1389824999        1.2919179754       -2.6408024353
 H         -2.3828852612        1.4439490964       -2.4576099165
 H         -7.1680842248        1.6250912367        0.1134481097
 H         -6.3277513828        0.7105846263        1.3718402216
 H         -5.8459662633        0.6029485617       -1.6326915356
 H         -6.4172508887       -0.6898157093       -0.5607592942
 O         -4.2833773405       -1.2962346860        0.4827946016
 C         -3.0599320939       -1.8022912710        0.8916004624
 O         -3.1370583377       -2.7319696718        1.7209481022
 H          2.1583049084       -1.6795137316        0.7601053191
 C          1.7090338445       -0.8472213186        1.2804094996
 C          0.3281317233       -0.7687712177        1.3971543350
 C         -0.2126050263        0.3075990128        2.0934956253
 C          0.5988491702        1.2953122403        2.6199540383
 C          1.9739719857        1.2239213781        2.4816517694
 C          2.5267507214        0.1392946749        1.8172846141
 N          3.9330413467        0.0702115148        1.6778360961
 S          4.5896726272        1.1065876039        0.5333174841
 O          6.0161396848        0.8760231135        0.5615041273
 O          4.1477986823        2.4467206136        0.8177591019
 C          3.9135720136        0.5257072992       -1.0109587349
 C          2.5991748369        0.8198311316       -1.3130548884
 C          2.0353595007        0.2728891961       -2.4550078046
 C          2.7945875708       -0.5487564837       -3.2736895177
 C          4.1174698995       -0.8271915581       -2.9617928152
 C          4.6817008886       -0.2952461448       -1.8139663130
 H          5.7021041405       -0.4928609532       -1.5270264142
 H          4.7048527477       -1.4639080782       -3.6039354354
 H          2.3500419615       -0.9761759590       -4.1590993266
 H          0.9977395007        0.4745391986       -2.6683627502
 H          2.0250669109        1.4592496061       -0.6624094802
 H          4.2676295562       -0.8661171655        1.4928775795
 H          2.6215102921        1.9955721027        2.8643023493
 H          0.1564127409        2.1299317186        3.1430359444
 H         -1.2863464843        0.3705464844        2.2079698561
 C         -0.5711988647       -1.8276963314        0.8052765265
 H         -0.8099774816       -2.5542312072        1.5965085945
 C          0.0820517323       -2.5617476166       -0.3512891431
 C          0.8648705395       -3.8182820945       -0.1179786316
 C         -0.4796879469       -3.8838109596       -0.7761721140
 H         -0.5307263967       -4.1091485302       -1.8305921401
 H         -1.3108375932       -4.2732573788       -0.2057994689
 H          1.7387254263       -4.0020040613       -0.7252898582
 H          0.9453395169       -4.1805538081        0.8961641121
 H          0.4191836696       -1.8870609863       -1.1301132439
 O         -0.8962291493        0.3135615058       -1.0993515479
