  62
        -98.94024210
 C         -2.4481957866       -0.9337865287       -0.0155356267
 C         -2.6385075969        0.4432121789        0.2525790684
 C         -4.0068914217        0.8358183362        0.6135343475
 C         -4.9722387731       -0.0978145686        0.6962542229
 C         -6.4080384988        0.1436207946        1.0765676828
 C         -7.2945312074        0.6032468146       -0.0890454963
 C         -7.0598780623        2.0398505705       -0.5574122640
 H         -7.8863858433        2.2991288219       -1.2220073800
 H         -7.1075228483        2.7125575372        0.2994039958
 C         -5.7381615267        2.2531294878       -1.3084749672
 H         -5.3433495722        1.2878117883       -1.6338691399
 H         -5.9219939371        2.8429817722       -2.2093489191
 C         -4.6615039122        2.9806273410       -0.5030393428
 H         -4.9920591370        3.9984905319       -0.2844532804
 H         -3.7588000438        3.0439813434       -1.1162065799
 C         -4.2884412006        2.2938594592        0.8173390781
 H         -3.3747749130        2.7562988110        1.1988906714
 H         -5.0833230389        2.4301893647        1.5502383144
 H         -7.1511432900       -0.0816463636       -0.9279300361
 H         -8.3331881391        0.5156064132        0.2378967314
 H         -6.7945017729       -0.8077200873        1.4483183175
 H         -6.4549066066        0.8768505717        1.8821037611
 O         -4.7398271438       -1.4164298292        0.4564414077
 C         -3.4836538811       -1.8629128844        0.0800192845
 O         -3.4151228059       -3.0918664278       -0.1270546564
 H          1.4196025201       -0.2806765345       -0.7098819503
 C          1.1691868861       -0.5168906340        0.3104458858
 C         -0.0512987266       -1.0911711230        0.6260225492
 C         -0.3265078213       -1.3802836486        1.9605894297
 C          0.5930483353       -1.0922045639        2.9498258174
 C          1.8139117629       -0.5242407328        2.6297921367
 C          2.0987443031       -0.2322175530        1.3017883288
 N          3.3178588935        0.3674199426        0.9470063082
 S          4.0287943167       -0.0490062170       -0.5256350845
 O          3.4343840448        0.7371628114       -1.5768962198
 O          3.9973780622       -1.4833792743       -0.7039917287
 C          5.7005073992        0.5020160719       -0.2368789420
 C          5.9847157451        1.8486589241       -0.3655513939
 C          7.2742740716        2.2880465760       -0.1121698087
 C          8.2526213796        1.3792839585        0.2636454997
 C          7.9530079513        0.0309006220        0.3864281730
 C          6.6647454330       -0.4152006285        0.1359754648
 H          6.3871588574       -1.4543213659        0.2110055913
 H          8.7166010963       -0.6731930894        0.6753439862
 H          9.2557392370        1.7239864902        0.4590435739
 H          7.5116799283        3.3351892372       -0.2091749085
 H          5.1941749844        2.5157101257       -0.6679398101
 H          3.9912257220        0.3664155032        1.7007966364
 H          2.5344275351       -0.3015649962        3.4021256457
 H          0.3618463041       -1.3190819529        3.9798940258
 H         -1.2773032597       -1.8328113356        2.2099397928
 C         -1.0778541124       -1.4408918734       -0.4241230517
 H         -1.1567325543       -2.5378672701       -0.4666216303
 C         -0.7234541119       -0.9274896058       -1.8042144918
 C          0.2165718621       -1.7002889609       -2.6781319397
 C         -1.2438742363       -1.6479032126       -3.0099115583
 H         -1.5588624188       -1.0660438874       -3.8630953696
 H         -1.8394804601       -2.5330149606       -2.8386958822
 H          0.6195989306       -2.6222562671       -2.2859220121
 H          0.9113675354       -1.1517890936       -3.2971129812
 H         -0.6813846588        0.1555413587       -1.8472559866
 O         -1.7178865358        1.2996526418        0.1987685639
