  62
        -98.94452924
 C         -2.5951224686       -1.2244246114        0.1507753724
 C         -2.6424512550       -0.2825331655       -0.9052622028
 C         -3.4448870204        0.9248845777       -0.6562077759
 C         -4.0745596109        1.0760339500        0.5222810567
 C         -4.8707282564        2.2820606385        0.9260195735
 C         -3.9919911846        3.3124031717        1.6489940735
 C         -2.6879563329        3.6376704375        0.9197410309
 H         -2.1697976329        4.4012142960        1.5042434128
 H         -2.0453744779        2.7533196413        0.9154913706
 C         -2.8713203448        4.1363225369       -0.5204345414
 H         -2.2157293579        4.9953744195       -0.6781582382
 H         -3.8966831306        4.4780318876       -0.6673118399
 C         -2.5204569496        3.1079722672       -1.5974420611
 H         -2.4681406316        3.6271082442       -2.5585106336
 H         -1.5274578681        2.6946898904       -1.3968111938
 C         -3.5099315289        1.9463340419       -1.7567667982
 H         -4.5233850580        2.3391156173       -1.8594300154
 H         -3.2520028863        1.4145538937       -2.6772699299
 H         -3.7403903631        2.9211533826        2.6373619649
 H         -4.5722088992        4.2271730082        1.7825095585
 H         -5.3188734967        2.7286985102        0.0407025124
 H         -5.6645859431        1.9585893885        1.6012987226
 O         -4.0161496159        0.1482339390        1.5101311287
 C         -3.2718054845       -1.0070968342        1.3563187122
 O         -3.2962685119       -1.7635269247        2.3473452748
 H         -0.0527467503       -1.1659842148       -1.4973838374
 C          0.4130608078       -1.4945833865       -0.5801308475
 C         -0.3335121105       -2.2137171827        0.3426615407
 C          0.2730462770       -2.5960169408        1.5335790059
 C          1.5918793254       -2.2646660419        1.7908874718
 C          2.3285951950       -1.5383959816        0.8721081125
 C          1.7276971348       -1.1434988705       -0.3156040631
 N          2.4611340238       -0.3724147993       -1.2427017036
 S          2.9867448815        1.1227187753       -0.6729882362
 O          2.1214940865        1.6232311289        0.3716838536
 O          3.1304801725        1.9568811075       -1.8463043782
 C          4.6025356963        0.7702925709       -0.0126810804
 C          5.5549269351        0.2522068102       -0.8685870441
 C          6.8172766131       -0.0308086061       -0.3722060124
 C          7.1048897255        0.2096866006        0.9632998075
 C          6.1389576560        0.7339203097        1.8086086004
 C          4.8736852077        1.0184658655        1.3184835566
 H          4.0886144530        1.4209435353        1.9387231930
 H          6.3642818904        0.9208701308        2.8462878991
 H          8.0878113488       -0.0122755090        1.3478062827
 H          7.5712763226       -0.4379682596       -1.0263625587
 H          5.2902664641        0.0851659407       -1.8992722272
 H          1.9623365557       -0.2400569192       -2.1124916047
 H          3.3530855789       -1.2683576764        1.0706930793
 H          2.0491080434       -2.5693417093        2.7199263246
 H         -0.3060851347       -3.1372778132        2.2678528181
 C         -1.7903820644       -2.5158592909        0.0847597760
 H         -2.1565191407       -3.1335756272        0.9153697952
 C         -1.9931531176       -3.2831002202       -1.2064455051
 C         -1.6737762657       -4.7463599866       -1.2359733777
 C         -3.0998220812       -4.2888595075       -1.2913360896
 H         -3.6389710534       -4.3829212577       -2.2219921459
 H         -3.7158458879       -4.4288093455       -0.4147896504
 H         -1.2308853464       -5.1585335677       -2.1295108323
 H         -1.3232756588       -5.1993632775       -0.3209627711
 H         -1.7848785862       -2.7023712394       -2.0948797504
 O         -2.0566025861       -0.4176429082       -2.0141443000
