  62
        -98.93866020
 C         -2.1053865504       -1.0144222507       -0.4162260464
 C         -3.1530337884       -1.2790837859        0.4981308426
 C         -4.4290850666       -0.5839543623        0.2587933788
 C         -4.5273995594        0.2546286081       -0.7873166317
 C         -5.7074744644        1.1034988909       -1.1718914956
 C         -5.5851428375        2.5105695289       -0.5626052466
 C         -6.1538132499        2.6537019498        0.8486915228
 H         -5.8859532881        3.6504923647        1.2066854627
 H         -7.2438034125        2.6043775220        0.8027060022
 C         -5.6597145046        1.6183396389        1.8624486819
 H         -4.5845463144        1.4714089329        1.7435413410
 H         -5.8206670880        2.0263035420        2.8622717288
 C         -6.3884070629        0.2706898075        1.7526428199
 H         -6.7527835902       -0.0241872938        2.7388800797
 H         -7.2690267835        0.3927194944        1.1222073659
 C         -5.5358154511       -0.8948096773        1.2293620391
 H         -5.0357012818       -1.3851580657        2.0703882756
 H         -6.1948525781       -1.6442381576        0.7785034832
 H         -6.1057525857        3.2192922069       -1.2099437370
 H         -4.5268765733        2.7849651285       -0.5631622878
 H         -5.6851398471        1.1931132292       -2.2600011260
 H         -6.6381481762        0.6270417054       -0.8785266046
 O         -3.4925317786        0.4865298270       -1.6401456015
 C         -2.2615397012       -0.1280092970       -1.4813726641
 O         -1.4198440850        0.1898332004       -2.3430456950
 H          1.1762877022       -0.4601483628       -1.7006504629
 C          1.1568888954       -0.1183820375       -0.6781873230
 C          0.2403727949       -0.6541248395        0.2127840740
 C          0.2259344902       -0.1780565429        1.5214477130
 C          1.0969932362        0.8172735848        1.9219486327
 C          2.0000077414        1.3620851095        1.0255089175
 C          2.0227867589        0.8932654241       -0.2811521578
 N          2.9323205688        1.4438800687       -1.1972328528
 S          4.5079667968        1.7035053062       -0.7077486845
 O          4.5873431246        2.9200610362        0.0625917257
 O          5.2923737104        1.6735591514       -1.9221572939
 C          4.9080788393        0.3067965727        0.3282497524
 C          5.2064444758        0.4979900686        1.6617479659
 C          5.4830082191       -0.6065183092        2.4518302530
 C          5.4532299929       -1.8765646281        1.8977397328
 C          5.1549440513       -2.0521843304        0.5549210205
 C          4.8781292338       -0.9517572382       -0.2394235086
 H          4.6487823603       -1.0527910735       -1.2880050742
 H          5.1338688696       -3.0410944852        0.1258517689
 H          5.6646875529       -2.7356404848        2.5146931436
 H          5.7173184004       -0.4728408626        3.4956390309
 H          5.2184886865        1.5025645891        2.0521010136
 H          2.8807747758        1.0457772871       -2.1225535931
 H          2.6730743901        2.1533677449        1.3130711447
 H          1.0716320512        1.1774150647        2.9391560030
 H         -0.4894435122       -0.5931662347        2.2176485665
 C         -0.7673166296       -1.7003216962       -0.1936863125
 H         -0.9259620456       -2.3702694514        0.6620506156
 C         -0.3503559898       -2.5291529814       -1.3898303178
 C          0.7276059886       -3.5579718977       -1.2295081881
 C         -0.6950738177       -3.9866909041       -1.4238149496
 H         -0.9790501304       -4.4257460634       -2.3685685596
 H         -1.2279087819       -4.3937514379       -0.5770742499
 H          1.4237705916       -3.7078433447       -2.0405245350
 H          1.1604650584       -3.6731550962       -0.2475537608
 H         -0.4050478325       -1.9887277073       -2.3271514341
 O         -3.0262619770       -2.0616295545        1.4779659184
