  62
        -98.93725446
 C          1.8603917010        1.5604804497        0.2546008919
 C          1.6834049108        0.4312463002       -0.5774961188
 C          2.5758289902       -0.7183751303       -0.3245732091
 C          3.5205870300       -0.6187151012        0.6276014612
 C          4.5328077394       -1.6454569819        1.0709343710
 C          5.2257614794       -2.4656169716       -0.0276566593
 C          4.7720940387       -3.9261587914       -0.0778661302
 H          5.5661117886       -4.5224413715       -0.5328469803
 H          4.6430213383       -4.2847956619        0.9456489096
 C          3.4905591789       -4.1855504504       -0.8681815907
 H          3.2066286984       -5.2277787804       -0.7045086714
 H          3.6933669292       -4.0676998999       -1.9347469606
 C          2.3054609391       -3.2908400101       -0.5003183606
 H          2.2492619189       -3.1608386606        0.5805688295
 H          1.3906553090       -3.8039331195       -0.8056676011
 C          2.3344721599       -1.9209595097       -1.1950933698
 H          3.0687754502       -1.9287924396       -2.0050669996
 H          1.3666264802       -1.7268466290       -1.6672053500
 H          6.2970766493       -2.4556756622        0.1796733110
 H          5.0811820798       -1.9884493110       -0.9953662791
 H          4.0502803489       -2.3179334021        1.7856252705
 H          5.2777807495       -1.0795448625        1.6354004015
 O          3.6685002502        0.5034507983        1.3905195319
 C          2.8413264108        1.6030974488        1.2424915622
 O          3.0740007909        2.5360983882        2.0381570428
 O          0.8113693410        0.3706477211       -1.4811933790
 C          0.9586036116        2.7690472602        0.0924360323
 C         -0.4971828086        2.3788532408        0.1956997616
 C         -1.4947957981        3.0088884316       -0.5388006183
 C         -2.8179564483        2.6245972021       -0.4047069189
 C         -3.1761469990        1.5970613718        0.4482125904
 C         -2.1852533395        0.9544442310        1.1794425104
 C         -0.8646704493        1.3604426605        1.0648166110
 H         -0.1012591897        0.8599262198        1.6481368709
 N         -2.5272046702       -0.1191552393        2.0182927297
 S         -3.6111006805       -1.2528667785        1.4310827088
 O         -4.9564278004       -0.8148284481        1.7138567886
 O         -3.2205188313       -2.5018800490        2.0489363182
 C         -3.3715969701       -1.3222436777       -0.3366975512
 C         -2.0981217500       -1.5083429180       -0.8359974109
 C         -1.9162552696       -1.5419492473       -2.2085268209
 C         -3.0051650593       -1.4007755264       -3.0544831111
 C         -4.2797701094       -1.2277982161       -2.5379094614
 C         -4.4665108098       -1.1831729068       -1.1659901814
 H         -5.4369266998       -1.0361929566       -0.7200663916
 H         -5.1253377691       -1.1198125454       -3.1979660516
 H         -2.8556455290       -1.4231885659       -4.1224223911
 H         -0.9207377895       -1.6521148275       -2.6069642506
 H         -1.2604650902       -1.6085257887       -0.1638434607
 H         -1.7342727205       -0.5679567099        2.4524036097
 H         -4.2011430392        1.2824719822        0.5614233000
 H         -3.5809954579        3.1273405027       -0.9786013289
 H         -1.2346838476        3.8023932218       -1.2198070278
 H          1.1934609616        3.4388791296        0.9333638327
 C          1.2852844523        3.4848318507       -1.2040063572
 C          1.1864337230        4.9770936008       -1.2974568665
 C          2.5304278027        4.3152994902       -1.2728695264
 H          3.1158575329        4.2957361405       -2.1798287863
 H          3.1238349524        4.3904582295       -0.3727865062
 H          0.8512150434        5.4148187115       -2.2257341763
 H          0.8741237929        5.5160687105       -0.4156330363
 H          1.0262582423        2.8968950913       -2.0769891176
