  62
        -98.94792023
 C         -0.9266319030       -1.0885118182        0.6912028894
 C         -1.4410004360       -0.9175556627       -0.6167511849
 C         -2.1777451929        0.3319108299       -0.8545961040
 C         -2.2886406216        1.2320832375        0.1389008315
 C         -3.0442664564        2.5259404204        0.0438094959
 C         -4.5045486535        2.3526588028        0.4845147392
 C         -5.2101376179        1.1647778989       -0.1691231444
 H         -4.7420785495        0.2392757085        0.1735457042
 H         -6.2402980143        1.1587014532        0.1932091361
 C         -5.2087893414        1.1924443164       -1.7038961015
 H         -4.9861322132        2.2000266599       -2.0571075426
 H         -6.2089705541        0.9375228122       -2.0605323697
 C         -4.2392588000        0.2039651407       -2.3549503694
 H         -4.3972656447       -0.7938029365       -1.9378718351
 H         -4.4702619032        0.1527743552       -3.4223535107
 C         -2.7495352118        0.5473005701       -2.2266131728
 H         -2.1903710281       -0.1206545282       -2.8889694683
 H         -2.5741074175        1.5728869624       -2.5600181631
 H         -5.0457540215        3.2718445695        0.2532496114
 H         -4.5240494584        2.2086288241        1.5670582791
 H         -2.5624726513        3.2572899171        0.6952294769
 H         -3.0018808881        2.8885764927       -0.9818132438
 O         -1.7555098610        1.0452194574        1.3735989037
 C         -1.0534870648       -0.1108088622        1.6763444789
 O         -0.5959449283       -0.1463495053        2.8363579746
 H          1.4579147475       -0.3133831914        0.3492981849
 C          1.7926890061       -1.2326425262       -0.1092219512
 C          1.0892937168       -2.4058083354        0.1318075758
 C          1.5428643625       -3.5818584217       -0.4511257069
 C          2.6550926655       -3.5685810786       -1.2754414507
 C          3.3262079967       -2.3900691986       -1.5455525805
 C          2.8864628347       -1.2096108526       -0.9573566965
 N          3.5415280822        0.0105053786       -1.1858873110
 S          2.6339880292        1.4094534839       -1.3372184197
 O          1.3625290654        1.1659682869       -1.9769919889
 O          3.5186599901        2.3321261371       -2.0199695502
 C          2.3920149084        1.9797346392        0.3305689332
 C          3.4608253697        1.9771026385        1.2044577324
 C          3.2668215076        2.4413086402        2.4954227011
 C          2.0180834999        2.9001043774        2.8866817259
 C          0.9575292390        2.9036413051        1.9945990181
 C          1.1454992376        2.4414657241        0.7023313741
 H          0.3440480874        2.4085338853       -0.0206762012
 H         -0.0175328261        3.2456305095        2.3027953266
 H          1.8655285358        3.2528233644        3.8943834472
 H          4.0872431892        2.4396009551        3.1949031462
 H          4.4147503910        1.6088814430        0.8656410761
 H          4.2914579177       -0.0255724392       -1.8612243308
 H          4.1790502396       -2.3788213356       -2.2070970238
 H          2.9952051304       -4.4881275804       -1.7272653041
 H          1.0205168578       -4.5068131084       -0.2693342033
 C         -0.1219114530       -2.3300573813        1.0305543262
 H          0.2293117536       -2.1919264443        2.0640756789
 C         -0.9960012883       -3.5654904742        0.9722597006
 C         -0.7096442428       -4.7380200635        1.8603655065
 C         -1.8980777400       -3.8663569993        2.1301526510
 H         -2.8840548189       -4.2572662288        1.9283198676
 H         -1.8597574910       -3.1932988289        2.9745223387
 H         -0.8827918884       -5.7314353388        1.4747065434
 H          0.1333028547       -4.6640239207        2.5305834705
 H         -1.3788692939       -3.7559457435       -0.0238211976
 O         -1.2982048072       -1.7659885908       -1.5358508910
