  62
        -98.93807607
 C         -1.3446375793       -1.6313871542        0.1842138644
 C         -2.3520974865       -1.1073968880        1.0297554258
 C         -3.1303212999        0.0304095848        0.5126391507
 C         -2.8326352003        0.5372210915       -0.6983660187
 C         -3.4925775924        1.6429610648       -1.4946563762
 C         -4.3743315483        2.6827709897       -0.8064637264
 C         -3.6528089291        3.5761966905        0.2011016674
 H         -2.9527519486        4.2199294887       -0.3375286557
 H         -4.3962844285        4.2218243700        0.6739814362
 C         -2.8709565540        2.8441902927        1.2895705708
 H         -2.4413625674        3.5970907548        1.9563738992
 H         -2.0371008927        2.2986326479        0.8421302405
 C         -3.6919587294        1.8800793383        2.1454436138
 H         -4.5618112050        2.3987537727        2.5529778769
 H         -3.0641598554        1.5723191692        2.9862499170
 C         -4.1693442442        0.5997606559        1.4342792614
 H         -4.3567800593       -0.1602983149        2.1983237128
 H         -5.1038450137        0.7650160203        0.9029965870
 H         -5.2298893742        2.2050421255       -0.3381089194
 H         -4.7671335410        3.3279148943       -1.5971251076
 H         -4.0908350215        1.1426745723       -2.2643755003
 H         -2.6800577036        2.1548836156       -2.0172380760
 O         -1.8273534174        0.0242866041       -1.4619043788
 C         -1.0437310216       -1.0418399107       -1.0446072160
 O         -0.1437003168       -1.3465647639       -1.8451524610
 O         -2.5933652444       -1.5702906631        2.1778727132
 C         -0.5012142559       -2.7791026175        0.7119796129
 C          0.9559652693       -2.4230292677        0.5629510035
 C          1.8627115113       -3.1496360570       -0.1953396389
 C          3.1725401975       -2.7185552990       -0.3231082325
 C          3.6059582641       -1.5627030114        0.2996853413
 C          2.7059926218       -0.8307173851        1.0639977655
 C          1.3982320739       -1.2664888857        1.1949913267
 H          0.6961855243       -0.6892541425        1.7853090183
 N          3.1305088068        0.3587570528        1.6964822695
 S          3.6462959207        1.5941525949        0.6889268477
 O          4.8890120845        1.2050864666        0.0730523819
 O          3.6894187778        2.7726528843        1.5254796592
 C          2.3758058294        1.7684550989       -0.5492313449
 C          2.4573261061        1.0302456250       -1.7123084119
 C          1.4491929674        1.1523897431       -2.6541801081
 C          0.3843362001        2.0069091881       -2.4182206393
 C          0.3129000209        2.7361450090       -1.2414862390
 C          1.3142744218        2.6130114738       -0.2925848617
 H          1.2994174827        3.1692674199        0.6314943279
 H         -0.5192586399        3.3976761936       -1.0571778782
 H         -0.3967854780        2.0953351780       -3.1570044880
 H          1.4898210040        0.5717665285       -3.5608643744
 H          3.3027030374        0.3793977106       -1.8637208711
 H          2.4437197875        0.7268685258        2.3401172088
 H          4.6168919026       -1.2037361517        0.1925639102
 H          3.8651136183       -3.2887372835       -0.9236007756
 H          1.5382222224       -4.0387133343       -0.7102494423
 H         -0.7333275571       -2.8133152708        1.7899051795
 C         -0.8584708210       -4.1471326604        0.1538328120
 C         -2.2542719603       -4.4491372487       -0.3013053540
 C         -1.1390302162       -4.3821792250       -1.2989394447
 H         -0.7949906855       -5.3057932150       -1.7413898531
 H         -1.0883019361       -3.5343112633       -1.9628731605
 H         -2.6764805121       -5.4133442343       -0.0607434951
 H         -2.9712390317       -3.6410763478       -0.2813190966
 H         -0.3450899053       -4.9438088869        0.6839446074
