  62
        -98.94231721
 C         -1.9904058811       -1.3380265846       -0.1327925302
 C         -3.0852832499       -1.2162278874        0.7631656307
 C         -4.2776817877       -0.5348786761        0.2498135716
 C         -4.2939058082       -0.0892657254       -1.0190374633
 C         -5.4425917929        0.6012541813       -1.7025923227
 C         -5.5136275640        2.1102867014       -1.4314094821
 C         -5.9693144011        2.4974206998       -0.0238971999
 H         -6.1839241483        3.5678492868       -0.0399978667
 H         -6.9016062813        1.9822386580        0.2095018524
 C         -4.9352939311        2.2186990849        1.0761648087
 H         -3.9509836190        2.0739264262        0.6242643807
 H         -4.8585361442        3.0884164365        1.7326816115
 C         -5.2567616910        1.0123333854        1.9586418351
 H         -6.1732433985        1.2040196082        2.5210659144
 H         -4.4412891148        0.8864975313        2.6755070478
 C         -5.4209525313       -0.3061347362        1.1913604715
 H         -6.3669263180       -0.3113582604        0.6501820922
 H         -5.4252313845       -1.1253685468        1.9144411276
 H         -6.2184147059        2.5373893008       -2.1486335713
 H         -4.5323668306        2.5480918351       -1.6295665563
 H         -5.3027775715        0.4504938357       -2.7752719744
 H         -6.3810869570        0.1325503959       -1.4051934812
 O         -3.2348511847       -0.2404101983       -1.8548818975
 C         -2.0512213395       -0.8382561831       -1.4341162864
 O         -1.1670723493       -0.8508845851       -2.3116845803
 O         -3.0671159558       -1.6689812392        1.9385878751
 C         -0.7548699925       -2.0412725378        0.4020140688
 C          0.2550031457       -1.0570538309        0.9345329073
 C          0.8099353440       -1.2143013242        2.1990420120
 C          1.7438667273       -0.3107315167        2.6768336500
 C          2.1463835260        0.7626674483        1.9031597761
 C          1.6005280869        0.9260282149        0.6358728983
 C          0.6640403636        0.0198525497        0.1595224082
 H          0.2472877229        0.1494598762       -0.8285021265
 N          2.0118914936        2.0050328472       -0.1664385708
 S          3.6592876767        2.2787563841       -0.2947077810
 O          4.1128586903        3.0193294630        0.8564814322
 O          3.8425603865        2.9266869060       -1.5739260585
 C          4.3990246917        0.6554176076       -0.2966658220
 C          4.0815343367       -0.2013156952       -1.3321979200
 C          4.6099773920       -1.4820697432       -1.3283455051
 C          5.4400915552       -1.8827939140       -0.2925634286
 C          5.7539381097       -1.0090213547        0.7366314143
 C          5.2282498444        0.2731409078        0.7380755559
 H          5.4445154925        0.9840397628        1.5186803375
 H          6.4016435136       -1.3227948392        1.5391961220
 H          5.8430740918       -2.8830708866       -0.2901763815
 H          4.3645050716       -2.1632371841       -2.1271756412
 H          3.4336223662        0.1408874369       -2.1242326803
 H          1.5690867541        2.0220343232       -1.0736381626
 H          2.8652374982        1.4814750485        2.2614190968
 H          2.1617625300       -0.4417762614        3.6630155460
 H          0.4933049496       -2.0434310685        2.8144132834
 H         -1.1231890632       -2.6283938420        1.2580262945
 C         -0.1518805955       -3.0253105111       -0.5921956440
 C          1.1456073748       -2.8026081183       -1.3032214005
 C          1.0580187210       -3.8293418324       -0.2169656585
 H          1.0868472144       -4.8745873174       -0.4841499988
 H          1.5339289194       -3.5970467926        0.7236531778
 H          1.2118204703       -3.1291349730       -2.3297834832
 H          1.6905987875       -1.8945336893       -1.1000159865
 H         -0.9223511840       -3.5411824478       -1.1570720894
