  62
        -98.94164993
 C         -2.3088754401       -0.7906875992        0.2210691726
 C         -1.5762873892       -0.0405553596       -0.7275134040
 C         -1.8589178506        1.4060803012       -0.7874611261
 C         -2.7374188509        1.9437432422        0.0751057851
 C         -3.2547292280        3.3594690353        0.1656041893
 C         -2.2853526753        4.5111865195       -0.1128630677
 C         -0.8698351675        4.3096594209        0.4464670032
 H         -0.5914555347        5.1837449912        1.0384964241
 H         -0.8452849007        3.4448825641        1.1133144074
 C          0.1831763780        4.1195952115       -0.6463913854
 H          0.0004589246        4.8373704865       -1.4495641532
 H          1.1675545279        4.3364692138       -0.2239473629
 C          0.2442707042        2.7080257079       -1.2245741102
 H          0.5668324623        2.0198033407       -0.4392455109
 H          1.0096490538        2.6925309540       -2.0047895473
 C         -1.0755731381        2.1776316429       -1.8116996700
 H         -1.6649270365        2.9819182285       -2.2461640985
 H         -0.8308443187        1.4624281875       -2.6016280669
 H         -2.2257069956        4.6901463696       -1.1852567041
 H         -2.7289775261        5.4045109847        0.3308927876
 H         -4.1105885115        3.4433944412       -0.5120887855
 H         -3.6444683899        3.4522844757        1.1828854487
 O         -3.3658543006        1.1935504813        1.0272391995
 C         -3.1606791379       -0.1694183146        1.1344937817
 O         -3.7864216859       -0.7101315428        2.0699847229
 H         -0.2042166215       -1.1816772845        1.8188977544
 C          0.1969970487       -1.9396962092        1.1608306061
 C         -0.6565099662       -2.6364792471        0.3135041660
 C         -0.1140649289       -3.6043291459       -0.5220977652
 C          1.2481377598       -3.8521818006       -0.5171397049
 C          2.0982968500       -3.1249787757        0.2951062740
 C          1.5645302858       -2.1519528464        1.1324778621
 N          2.3881876395       -1.3506560678        1.9533419367
 S          2.4358449403        0.2851393157        1.5835907502
 O          3.3530330385        0.8630391142        2.5433709734
 O          1.1004653443        0.8236757224        1.5785215700
 C          3.1746182352        0.3513330264       -0.0403477590
 C          2.4404843502       -0.0346877413       -1.1442717852
 C          3.0611488738       -0.0374797667       -2.3848801545
 C          4.3900411319        0.3379282478       -2.5016813632
 C          5.1126683884        0.7205437537       -1.3813795306
 C          4.5024386042        0.7225553212       -0.1380801165
 H          5.0220236632        1.0120045985        0.7611614809
 H          6.1461108661        1.0140295892       -1.4721237784
 H          4.8640060495        0.3327101211       -3.4706447497
 H          2.4917770044       -0.3362891092       -3.2503595924
 H          1.4032227345       -0.3151851710       -1.0434959840
 H          3.3366230681       -1.6933091334        2.0306921164
 H          3.1639008792       -3.2985885578        0.2788962045
 H          1.6549726666       -4.6078268290       -1.1716032940
 H         -0.7533308542       -4.1522649579       -1.1943937526
 C         -2.1248051555       -2.2917416471        0.3700855484
 H         -2.4811446595       -2.5194911026        1.3891596428
 C         -2.9768039029       -3.1167924050       -0.5842115359
 C         -4.2429834964       -2.5653688689       -1.1668437097
 C         -3.0558604878       -2.8060514540       -2.0476788614
 H         -3.0968397489       -3.6289095213       -2.7461879633
 H         -2.4990329815       -1.9543071647       -2.4040608876
 H         -4.5050283212       -1.5456853049       -0.9232120003
 H         -5.0940892968       -3.2241750818       -1.2536157565
 H         -3.0003026320       -4.1653518749       -0.3039165087
 O         -0.7393702640       -0.5484088503       -1.5183499178
