  62
        -98.94035214
 C          1.7828375731       -0.6501651719       -0.9572071259
 C          2.0111974994       -0.3094322531        0.3990497154
 C          3.4021772009       -0.4366437916        0.8643273690
 C          4.3525068290       -0.8597159581        0.0122933748
 C          5.8114422822       -0.9816944474        0.3422179129
 C          6.5655817449        0.3123244120        0.0054759916
 C          5.8982467236        1.5757306207        0.5492200618
 H          6.5339378398        2.4213877923        0.2776743409
 H          4.9403728105        1.7193487876        0.0437640765
 C          5.6728096645        1.5722709105        2.0676578147
 H          5.9729375821        2.5431279667        2.4676380711
 H          6.3088892912        0.8193713756        2.5345896090
 C          4.2211105589        1.3445901550        2.4937367860
 H          3.5674094871        2.0356896993        1.9552620895
 H          4.1391378564        1.5798421446        3.5582279126
 C          3.6827408473       -0.0781051903        2.2965007671
 H          4.3684808598       -0.7976597844        2.7482668174
 H          2.7221314334       -0.1433476791        2.8155406408
 H          7.5794872138        0.2345349612        0.4021700946
 H          6.6321352936        0.4014040568       -1.0814178697
 H          5.9219744835       -1.2147822807        1.3993888994
 H          6.2305595768       -1.7991428898       -0.2469873708
 O          4.0952428088       -1.1777456796       -1.2826013854
 C          2.8173491531       -1.0569562863       -1.8035107733
 O          2.7318105618       -1.3327711010       -3.0170175375
 O          1.1143656655        0.0814684306        1.1888561552
 C          0.4053650483       -0.5272803341       -1.5854275755
 C         -0.2379783515        0.7750577524       -1.1760191796
 C          0.4449414368        1.9643151666       -1.4220140728
 C         -0.0996936464        3.1805206681       -1.0619418691
 C         -1.3519602006        3.2413902072       -0.4746947075
 C         -2.0466318809        2.0634649936       -0.2364400678
 C         -1.4856121518        0.8406269138       -0.5785673124
 H         -2.0323164606       -0.0601037577       -0.3580993754
 N         -3.3165081315        2.0803829516        0.3602200861
 S         -4.5106335608        1.0730164866       -0.2371880434
 O         -4.3692559623        0.8677885509       -1.6604421415
 O         -5.7518837795        1.6807373007        0.1946133128
 C         -4.2995971667       -0.4678706845        0.6284745842
 C         -4.4258638656       -1.6527696853       -0.0692171414
 C         -4.3091426185       -2.8514740975        0.6169362403
 C         -4.0702826429       -2.8436169893        1.9827964333
 C         -3.9457105614       -1.6446783527        2.6682784985
 C         -4.0648197291       -0.4430369517        1.9887579064
 H         -3.9727462688        0.5062729332        2.4892408196
 H         -3.7552814237       -1.6431510774        3.7293889154
 H         -3.9768391382       -3.7775584769        2.5144196295
 H         -4.4028693908       -3.7845745834        0.0841271905
 H         -4.6012024123       -1.6124552382       -1.1326566136
 H         -3.6751007135        2.9992715904        0.5753412628
 H         -1.7835014783        4.1918166322       -0.1988346332
 H          0.4487858159        4.0920183819       -1.2480181159
 H          1.4194319823        1.9184006938       -1.8906247183
 H          0.5916775135       -0.4761842218       -2.6717786722
 C         -0.4925374702       -1.7345080427       -1.3570343309
 C          0.0851859862       -3.1003279147       -1.1400151315
 C         -0.6122428567       -2.3951852464       -0.0176794482
 H         -1.5832399565       -2.7538124667        0.2911176833
 H         -0.0191075778       -1.9930582603        0.7877313620
 H         -0.4054479116       -3.9414121979       -1.6062543845
 H          1.1613351132       -3.1892643190       -1.1032535296
 H         -1.3942208456       -1.6859874738       -1.9612231520
