  62
        -98.94429441
 C         -1.7731048457       -1.2775949236        0.2682246288
 C         -1.3472192051       -0.1816457767       -0.5143294878
 C         -1.9166870125        1.1351011969       -0.1792944459
 C         -2.8111574635        1.2161401181        0.8228052658
 C         -3.5522969987        2.4411498847        1.2830625411
 C         -4.7038120685        2.8294935712        0.3342945102
 C         -4.4222778962        2.6276524251       -1.1539520715
 H         -4.0922590945        1.6002272696       -1.3186873033
 H         -5.3659745188        2.7546763521       -1.6909768968
 C         -3.4072078136        3.5918342872       -1.7638040267
 H         -3.2788978876        3.3159797390       -2.8133642706
 H         -3.8166883152        4.6044111218       -1.7327288284
 C         -2.0321044974        3.6184955453       -1.0979917624
 H         -2.0925024913        4.0929036413       -0.1219798009
 H         -1.3825446002        4.2508752579       -1.7108526306
 C         -1.3325329448        2.2656160706       -0.9895557868
 H         -1.1819832084        1.8597441982       -1.9960917179
 H         -0.3277395149        2.4291844793       -0.5765003554
 H         -4.9696426786        3.8713254236        0.5190474738
 H         -5.5669568397        2.2107077661        0.5902077903
 H         -2.8490088451        3.2596523076        1.4117587747
 H         -3.9718856503        2.2094998441        2.2645245228
 O         -3.2136066141        0.1274885515        1.5383235645
 C         -2.6849801125       -1.1283804539        1.3096933866
 O         -3.1022654859       -2.0176460349        2.0819501322
 O         -0.5247884415       -0.2979976995       -1.4621554272
 C         -1.1833112966       -2.6530961706        0.0192220163
 C          0.3251573268       -2.5834838184        0.0323948424
 C          1.1240151826       -3.3336517421       -0.8225475773
 C          2.5027655116       -3.2184619816       -0.7800833456
 C          3.1125979798       -2.3379212175        0.0945849489
 C          2.3226541464       -1.5911471159        0.9603688439
 C          0.9461016177       -1.7413638932        0.9461687920
 H          0.3505346581       -1.1532064062        1.6297759329
 N          2.8874222420       -0.6551046708        1.8545686687
 S          2.5222165394        0.9570810206        1.5651406248
 O          3.2856915818        1.6961808095        2.5490385317
 O          1.0961417733        1.1535036837        1.5875566284
 C          3.1959433982        1.2715204577       -0.0572215209
 C          2.4919140812        0.8773305673       -1.1772647487
 C          3.0729867322        1.0603817734       -2.4236534972
 C          4.3349175702        1.6236450430       -2.5289106618
 C          5.0279586094        2.0132459302       -1.3923101324
 C          4.4568970021        1.8314301982       -0.1437176218
 H          4.9546764219        2.1212013412        0.7677447823
 H          6.0086280404        2.4535331861       -1.4749281014
 H          4.7795847825        1.7603624041       -3.5020996993
 H          2.5279046044        0.7550182349       -3.3023434704
 H          1.5078001076        0.4445200264       -1.0777401024
 H          3.8899467119       -0.7465256487        1.9532904559
 H          4.1863030776       -2.2250778195        0.1088053156
 H          3.1087575654       -3.8074584204       -1.4512872941
 H          0.6644797435       -4.0058813311       -1.5286805799
 H         -1.5101719683       -3.2832505304        0.8600153410
 C         -1.7388303687       -3.2300308200       -1.2683594151
 C         -1.9588975294       -4.7055209102       -1.4110339370
 C         -3.1311170521       -3.7833203287       -1.2681931441
 H         -3.7583037153       -3.6040371240       -2.1285366883
 H         -3.6655762549       -3.7713801322       -0.3291168027
 H         -1.7850051254       -5.1623089504       -2.3737039348
 H         -1.7066216075       -5.3336426206       -0.5700515761
 H         -1.4231262580       -2.6703378335       -2.1414633547
