  62
        -98.94411366
 C         -2.0138696198       -1.2655244984       -0.0881224590
 C         -2.4124832730       -0.2336780602       -0.9718707864
 C         -3.8300147863        0.1533400714       -0.9052512707
 C         -4.6505825213       -0.4809814414       -0.0486237215
 C         -6.1000125393       -0.1510982233        0.1567764621
 C         -6.2803962733        0.8803660816        1.2792927861
 C         -5.3687848054        2.1007423774        1.1493064265
 H         -5.6062206991        2.7736980697        1.9761294193
 H         -4.3302148694        1.7873122274        1.2794994349
 C         -5.5056926995        2.8567820150       -0.1796748433
 H         -6.4445202644        2.5868340014       -0.6647123793
 H         -5.5455505404        3.9278511417        0.0297301148
 C         -4.3492387878        2.6375845462       -1.1570584933
 H         -3.3989784070        2.8168303955       -0.6470427062
 H         -4.4354250394        3.3785082204       -1.9564947437
 C         -4.2876296780        1.2551516933       -1.8189731264
 H         -5.2571569327        1.0144871747       -2.2597797200
 H         -3.5470658550        1.3053419363       -2.6226300055
 H         -7.3232632286        1.2024470984        1.2879000940
 H         -6.0668487555        0.3943313672        2.2340574565
 H         -6.5160306347        0.2316432235       -0.7730741036
 H         -6.6260073440       -1.0674846871        0.4297623862
 O         -4.2338727278       -1.4764627633        0.7744512267
 C         -2.9094954928       -1.8776110882        0.7916884439
 O         -2.6558809412       -2.7776101597        1.6168760134
 H          1.0987533763       -0.0079423519       -1.3828553476
 C          1.0731673095        0.1805238106       -0.3215134055
 C          0.2794068879       -0.6036075704        0.5001322986
 C          0.2494643259       -0.3222304304        1.8632866276
 C          0.9956953409        0.7157817009        2.3888338729
 C          1.7853939776        1.4991193358        1.5644653269
 C          1.8137136099        1.2314273386        0.2032628850
 N          2.6323464547        2.0167429742       -0.6367957313
 S          4.2721854660        1.9446467413       -0.2959594215
 O          4.5504608318        2.7397503363        0.8730091929
 O          4.9442237682        2.3421100834       -1.5124195946
 C          4.5619305500        0.2194952640        0.0526958868
 C          4.6192251286       -0.6606401809       -1.0096994239
 C          4.7508011726       -2.0151045696       -0.7518924462
 C          4.8109591555       -2.4647473607        0.5583513420
 C          4.7520379569       -1.5684082821        1.6139568075
 C          4.6237289888       -0.2118144217        1.3620478104
 H          4.5752870437        0.5175327682        2.1536215506
 H          4.7994168712       -1.9213614421        2.6315658116
 H          4.9055561396       -3.5208016191        0.7569171454
 H          4.7995160092       -2.7158696403       -1.5698037648
 H          4.5738394412       -0.2719893033       -2.0144935342
 H          2.4742535535        1.8365887530       -1.6182338299
 H          2.3809921490        2.3092661972        1.9535420445
 H          0.9630618792        0.9187514161        3.4485773885
 H         -0.3740857610       -0.9299461373        2.5048144418
 C         -0.5680729410       -1.7327295503       -0.0319932800
 H         -0.5454906207       -2.5469573459        0.7044596565
 C         -0.0968304458       -2.2696731195       -1.3675223127
 C          1.1892735417       -3.0364633766       -1.4341319506
 C         -0.1180915046       -3.7470220074       -1.6120009452
 H         -0.3839598718       -4.1015852676       -2.5966518615
 H         -0.4712834787       -4.3803552147       -0.8114489871
 H          1.8229121681       -2.9053541524       -2.2978463014
 H          1.7287029592       -3.1826925985       -0.5106058100
 H         -0.3497835580       -1.6261257114       -2.2011337226
 O         -1.6358978813        0.3367069431       -1.7822138297
