  62
        -98.93746955
 C         -2.2833234354       -0.4412231301       -0.3591561884
 C         -3.5282192240       -0.7902276908       -0.9431514409
 C         -4.7093398312       -0.6408885774       -0.0864946332
 C         -4.5583536052       -0.2513870716        1.1919540765
 C         -5.6619157944       -0.0697949696        2.1984547960
 C         -6.3585917953        1.2956488340        2.1193650396
 C         -7.2737272343        1.4906910908        0.9097344103
 H         -7.9727630157        0.6562880781        0.8460725955
 H         -7.8594821599        2.3934287317        1.0939223293
 C         -6.5338563282        1.6476336112       -0.4262123123
 H         -6.9586363030        2.4865410901       -0.9821700299
 H         -5.4855373158        1.8901106669       -0.2356609412
 C         -6.6013341049        0.4206876363       -1.3358853032
 H         -6.0146404480        0.6275383078       -2.2348372166
 H         -7.6354265450        0.2479595234       -1.6418843132
 C         -6.0578228370       -0.8660461151       -0.7008574793
 H         -5.9433962109       -1.6156483218       -1.4876461236
 H         -6.7578730656       -1.2432128406        0.0441437613
 H         -5.5959301735        2.0778776197        2.1293449856
 H         -6.9601788811        1.4068668080        3.0244127998
 H         -6.3998695390       -0.8637152039        2.0803019793
 H         -5.2016483640       -0.1652896984        3.1841667961
 O         -3.3405532811        0.0075296018        1.7363343961
 C         -2.1756204989       -0.0609913181        0.9794337823
 O         -1.1473780690        0.2261822840        1.6195095922
 O         -3.6450556625       -1.2131964969       -2.1240719290
 C         -1.0484198320       -0.5438008182       -1.2347599142
 C          0.0713748063       -1.2407997957       -0.5055847636
 C         -0.1023795919       -2.5697741889       -0.1258252917
 C          0.8981868009       -3.2519731890        0.5376319588
 C          2.1027436485       -2.6309394894        0.8183195262
 C          2.2833134174       -1.3036586853        0.4501157213
 C          1.2700771291       -0.6163641212       -0.2038802465
 H          1.4315346154        0.4182717032       -0.4565795811
 N          3.4826789043       -0.6355951758        0.7420452188
 S          4.0502554609        0.5135600895       -0.3538960625
 O          3.4489885522        1.7898970799       -0.0599749957
 O          3.8888883466        0.0286450039       -1.7067355138
 C          5.7796018055        0.5504489146        0.0830667838
 C          6.6763490115       -0.2145351305       -0.6388364349
 C          8.0134065200       -0.2035279292       -0.2738080413
 C          8.4285891861        0.5659918053        0.8025345734
 C          7.5172174731        1.3293898020        1.5170514397
 C          6.1789665451        1.3235239301        1.1569741131
 H          5.4362386316        1.9066322863        1.6762830540
 H          7.8441276425        1.9286561541        2.3514299405
 H          9.4695460104        0.5734618032        1.0846084489
 H          8.7247539124       -0.7931155478       -0.8292517433
 H          6.3091155629       -0.7895626016       -1.4736212860
 H          4.2162306118       -1.2540442184        1.0591577903
 H          2.8894122951       -3.1646773501        1.3297736452
 H          0.7452463211       -4.2800762431        0.8300235817
 H         -1.0407505488       -3.0578078413       -0.3535851010
 H         -1.3597407345       -1.1940015994       -2.0706466935
 C         -0.6185698818        0.7774622999       -1.8546122508
 C         -1.6218296870        1.8369381595       -2.1960251406
 C         -0.6368032235        2.0661421198       -1.0910551563
 H          0.1724896101        2.7643969686       -1.2511539818
 H         -0.9859475132        2.0378452449       -0.0704930480
 H         -1.4989396638        2.3826344097       -3.1193833206
 H         -2.6525738188        1.6525188418       -1.9297542903
 H          0.2004996868        0.6457176950       -2.5568665433
