  62
        -98.94197205
 C         -1.2343656499       -0.8428156598        0.3514656101
 C         -2.0676408902       -0.6663643694       -0.7764551096
 C         -3.0683175498        0.4118074809       -0.6837216691
 C         -3.0927675893        1.1916029808        0.4108549810
 C         -4.0584438288        2.3028451310        0.7164586615
 C         -5.2387175287        1.7807101012        1.5533579918
 C         -6.4008221391        1.2099954117        0.7412252821
 H         -7.0992549690        0.7572592618        1.4487031223
 H         -6.9242903191        2.0281954319        0.2422369224
 C         -6.0171333698        0.1636159517       -0.3086123481
 H         -5.2803241399       -0.5247910086        0.1089299415
 H         -6.9104269600       -0.4196199880       -0.5402219279
 C         -5.4787721801        0.7805655317       -1.6082367982
 H         -5.6992369798        1.8480855618       -1.6121574780
 H         -6.0121906105        0.3513850120       -2.4588455681
 C         -3.9797171002        0.5639875213       -1.8707587988
 H         -3.8389258707       -0.3567866686       -2.4456727089
 H         -3.6037250902        1.3812772213       -2.4956324888
 H         -4.8535647487        1.0168229510        2.2336955316
 H         -5.6231588483        2.5991765212        2.1653768921
 H         -3.5087941284        3.0399569608        1.3060675514
 H         -4.4026630090        2.7750970512       -0.1990351383
 O         -2.2313035090        1.0242384604        1.4517247307
 C         -1.2834656493        0.0184355001        1.4466916103
 O         -0.5511636389       -0.0083584402        2.4579248700
 H          0.8438081303        0.4247275098       -0.3126555904
 C          1.2829472499       -0.3680756303       -0.8985047106
 C          0.8448180495       -1.6731512102       -0.7224578107
 C          1.4021045390       -2.6702200202       -1.5129020610
 C          2.3627299488       -2.3551514404       -2.4588552213
 C          2.8098433391       -1.0556659105       -2.6165870412
 C          2.2627590096       -0.0524549404       -1.8249412409
 N          2.6892052500        1.2807128995       -1.9308113909
 S          2.8135907407        2.1978749692       -0.5358822608
 O          1.5094465210        2.6285175195       -0.0972241303
 O          3.7380683609        3.2550903590       -0.8887389309
 C          3.5752535308        1.1062207688        0.6527873088
 C          2.8563519910        0.5812459589        1.7067230090
 C          3.4848107610       -0.3092574314        2.5644389186
 C          4.8098263909       -0.6574364218        2.3572922681
 C          5.5216537607       -0.1132744618        1.2985352280
 C          4.8995787806        0.7736999485        0.4365560183
 H          5.4208725605        1.2269367785       -0.3909213218
 H          6.5542201005       -0.3802389021        1.1418270276
 H          5.2895117109       -1.3541306920        3.0265124679
 H          2.9231289012       -0.7260146714        3.3854904388
 H          1.8231679211        0.8578775592        1.8517942894
 H          3.4704849098        1.4310001593       -2.5520480511
 H          3.5658608889       -0.8155126106       -3.3480538015
 H          2.7788766583       -3.1367627304       -3.0759101115
 H          1.0789600688       -3.6913289102       -1.3945291410
 C         -0.1798392702       -1.9335813901        0.3560714496
 H          0.3362667402       -1.8484742203        1.3246868095
 C         -0.8224963006       -3.3018693499        0.2658188696
 C         -0.1745577107       -4.4844572701        0.9191317893
 C         -1.4243438403       -3.8983189899        1.5016666698
 H         -2.3477405705       -4.4504054696        1.4112925800
 H         -1.3462932199       -3.3271355700        2.4157365498
 H         -0.2421962511       -5.4446204600        0.4303289391
 H          0.7533379595       -4.3193968705        1.4454378090
 H         -1.3476043009       -3.4535376196       -0.6697940802
 O         -1.9901141107       -1.3780321192       -1.8126284297
