  62
        -98.94416922
 C         -1.9748433303       -1.3153268701        0.0485600692
 C         -2.2789090802       -0.3571712995       -0.9486434903
 C         -3.6821340902        0.0799275407       -1.0109777201
 C         -4.5797167002       -0.4428544197       -0.1566723805
 C         -6.0245992302       -0.0456862897       -0.0779712103
 C         -6.2335398002        1.0933565498        0.9298617104
 C         -5.2652574301        2.2628578498        0.7509721811
 H         -4.2510677801        1.9257901296        0.9784656709
 H         -5.5260098300        3.0177105594        1.4960370315
 C         -5.2862660499        2.8968221606       -0.6469865385
 H         -5.2944755098        3.9834293805       -0.5381800179
 H         -6.2030906099        2.6167463410       -1.1670889687
 C         -4.0808880899        2.5461866310       -1.5213712587
 H         -3.1580378199        2.7375036906       -0.9672654885
 H         -4.0852516798        3.2122512315       -2.3884404083
 C         -4.0372354300        1.1066637013       -2.0493269695
 H         -3.2484134200        1.0544754617       -2.8054115895
 H         -4.9876344800        0.8608353917       -2.5271169297
 H         -6.1025093502        0.6927090692        1.9376964201
 H         -7.2603799401        1.4518286899        0.8376762105
 H         -6.6027751303       -0.9135999998        0.2435532392
 H         -6.3664526701        0.2608799609       -1.0645975601
 O         -4.2542454504       -1.3714970403        0.7778189890
 C         -2.9506820304       -1.8132255605        0.9171421688
 O         -2.7870210005       -2.6445827711        1.8319958983
 O         -1.4375438201        0.1154361509       -1.7578607000
 C         -0.5603197804       -1.8343518803        0.2595515589
 C          0.2716302797       -0.7324773707        0.8687405896
 C          0.3297600896       -0.5956670416        2.2521964597
 C          1.0638793697        0.4229780580        2.8327212103
 C          1.7492897198        1.3319662584        2.0452222009
 C          1.6873688899        1.2089733392        0.6640090608
 C          0.9649021198        0.1761246197        0.0830298902
 H          0.9117572798        0.1021817103       -0.9916304999
 N          2.3861637900        2.1327048497       -0.1460162886
 S          4.0561385200        2.0511622095       -0.0441829086
 O          4.4663108399        2.4940484787        1.2639466817
 O          4.5593751201        2.8103905401       -1.1660511381
 C          4.4268890798        0.3188888996       -0.2493948996
 C          4.4268950397       -0.5052799811        0.8580645799
 C          4.6290282596       -1.8642748810        0.6793012492
 C          4.8256233296       -2.3728593603       -0.5951619011
 C          4.8246276497       -1.5310975396       -1.6968847306
 C          4.6161900999       -0.1722395597       -1.5256314499
 H          4.6101745099        0.5173896608       -2.3546633995
 H          4.9808991098       -1.9291625191       -2.6868521309
 H          4.9803393295       -3.4317463702       -0.7303803317
 H          4.6295794695       -2.5210882315        1.5342847588
 H          4.2758977197       -0.0717202017        1.8329661702
 H          2.1056047100        2.0854617003       -1.1159217087
 H          2.3355568599        2.1268911681        2.4773906314
 H          1.1012348596        0.5127173974        3.9079074204
 H         -0.2179680805       -1.2949054919        2.8685707493
 H         -0.6472021105       -2.6391037007        1.0010530784
 C          0.0454922196       -2.4036206796       -1.0074577514
 C          1.3175391996       -3.1896781898       -0.9121973818
 C          0.0282603895       -3.8847044595       -1.2290128322
 H         -0.1282079005       -4.2524228289       -2.2320608925
 H         -0.4235052206       -4.4999978399       -0.4646055726
 H          2.0514575296       -3.0793010694       -1.6953859717
 H          1.7424462295       -3.3284165404        0.0702762182
 H         -0.0964212403       -1.7742691291       -1.8762412710
