  62
        -98.93635542
 C         -1.7880257587       -1.6415333395        0.1300926411
 C         -1.4845258293       -0.2678818194       -0.0269173592
 C         -2.5510415996        0.6924930902        0.3363527706
 C         -3.7319942394        0.2251837198        0.7788470307
 C         -4.9656638997        1.0038216094        1.1516613906
 C         -5.7264867600        1.5353863388       -0.0737376195
 C         -4.8490576803        2.1581433188       -1.1564610297
 H         -5.4924033505        2.3960274883       -2.0078145397
 H         -4.1221716101        1.4187926391       -1.4973951895
 C         -4.1207754009        3.4364658193       -0.7484597901
 H         -4.8551708012        4.1838048090       -0.4395536402
 H         -3.6138274211        3.8179415492       -1.6384185302
 C         -3.0801914307        3.2859806300        0.3633700799
 H         -3.5547743907        3.2220173700        1.3387493800
 H         -2.4801930111        4.2004799502        0.3711767896
 C         -2.1084743203        2.1260863003        0.1717941402
 H         -1.2716692503        2.2489030609        0.8693835501
 H         -1.6608601103        2.1925081703       -0.8259600199
 H         -6.4616499703        2.2660925885        0.2679504504
 H         -6.2675949997        0.6993760684       -0.5240602992
 H         -5.6181958094        0.3156169393        1.6937766608
 H         -4.7065301200        1.8134060897        1.8275040804
 O         -3.9777428089       -1.1101954603        0.9158332011
 C         -3.0230154385       -2.0637458399        0.6279386013
 O         -3.3834624680       -3.2368086600        0.8542774216
 H          1.5353047514       -1.9165577785       -1.4145740590
 C          1.6296442414       -1.9273640682       -0.3400885390
 C          0.5591825816       -2.3306683185        0.4407236112
 C          0.6959635817       -2.3020733680        1.8252332712
 C          1.8736812816       -1.8765112574        2.4103189710
 C          2.9379130513       -1.4646784971        1.6274253108
 C          2.8078738513       -1.4841407276        0.2454002208
 N          3.8776387510       -1.0607634673       -0.5656201693
 S          4.5915639804        0.4199611131       -0.2538620098
 O          5.3659093203        0.7123716331       -1.4398310599
 O          5.3331740305        0.3382018337        0.9802659602
 C          3.2652141300        1.5994176925       -0.0904797400
 C          2.8219917799        1.9625107927        1.1641663999
 C          1.7890061495        2.8795362723        1.2676436197
 C          1.2197736392        3.4119190817        0.1220573596
 C          1.6694214693        3.0281537016       -1.1309958703
 C          2.7003064097        2.1110776020       -1.2409700301
 H          3.0863413198        1.7983260119       -2.1980397700
 H          1.2181945991        3.4383850212       -2.0203205004
 H          0.4198104789        4.1309907314        0.2051335995
 H          1.4309402694        3.1744697724        2.2415833997
 H          3.2960728001        1.5334851531        2.0317825700
 H          3.6786555410       -1.1373728077       -1.5530066593
 H          3.8602881512       -1.1198465166        2.0659801507
 H          1.9642622716       -1.8602326971        3.4861375310
 H         -0.1419881981       -2.6054890682        2.4386668113
 C         -0.7671627782       -2.7319235692       -0.1530838286
 H         -1.1346602078       -3.6146448392        0.3948465016
 C         -0.6721681381       -3.1379607995       -1.6161867285
 C         -1.8965977282       -3.1650153103       -2.4801745885
 C         -0.8194681886       -2.1569495499       -2.7388642588
 H         -0.2007688386       -2.2858947698       -3.6154415488
 H         -1.0052643690       -1.1258811299       -2.4831594790
 H         -2.8234408583       -2.8259556005       -2.0406639385
 H         -2.0175868579       -3.9822604405       -3.1752337382
 H          0.0387494222       -3.9456883093       -1.7641169584
 O         -0.3850758795        0.1670959609       -0.4554825494
