  62
        -98.93735916
 C          2.3649759880        1.0857656960        0.4255297827
 C          3.0571125046        0.1329443218        1.2169370137
 C          4.4126933596       -0.2154171574        0.7820089802
 C          4.9352313501        0.3827940715       -0.3037503053
 C          6.3133981384        0.1570553888       -0.8635691316
 C          6.4192820978       -1.0647877002       -1.7864393977
 C          6.3606805263       -2.4201557866       -1.0807405942
 H          6.6661105211       -3.1741045004       -1.8089605343
 H          7.0890118853       -2.4378717072       -0.2693831291
 C          4.9736328536       -2.7924797447       -0.5382657464
 H          4.2156130034       -2.1633408919       -1.0105978076
 H          4.7427172547       -3.8259723190       -0.8060556473
 C          4.8342012329       -2.6767180455        0.9797456346
 H          5.4928039062       -3.4004002193        1.4652325190
 H          3.8041381647       -2.9247473462        1.2490203439
 C          5.1460158643       -1.2819143691        1.5377032994
 H          4.8090802267       -1.2445713129        2.5766706820
 H          6.2197913674       -1.0972114902        1.5113667987
 H          7.3744467821       -0.9937980283       -2.3117664682
 H          5.6240389878       -1.0082624956       -2.5331681199
 H          7.0292753233        0.0609536097       -0.0467464408
 H          6.5632849643        1.0486435001       -1.4426228206
 O          4.2495679849        1.3045299074       -1.0266475331
 C          2.9435812084        1.6624468967       -0.7064295603
 O          2.4460896735        2.4830533682       -1.4968036163
 O          2.5618198584       -0.3947248066        2.2500363541
 C          0.9590254572        1.4376287940        0.8752431642
 C         -0.0676965116        0.5546523349        0.2160912705
 C         -0.1098468968        0.3884580443       -1.1650055954
 C         -1.0872899690       -0.3967301918       -1.7496314106
 C         -2.0451969066       -1.0254488785       -0.9717281656
 C         -2.0021166563       -0.8759260641        0.4065949242
 C         -1.0162845567       -0.0956628667        0.9916076570
 H         -0.9916766598        0.0126201301        2.0680524232
 N         -3.0191287793       -1.4831884383        1.1934895620
 S         -4.3477365075       -0.4538653319        1.3665487967
 O         -3.9199544452        0.8938722405        1.6743540694
 O         -5.2121125007       -1.0809902945        2.3410431050
 C         -5.0901516609       -0.5047062890       -0.2464780702
 C         -4.8570266444        0.5315944662       -1.1288653344
 C         -5.4060786199        0.4630906591       -2.3995721358
 C         -6.1728115392       -0.6341093729       -2.7619574322
 C         -6.3995616757       -1.6651581347       -1.8621253162
 C         -5.8519083823       -1.6042251502       -0.5906894267
 H         -6.0038658896       -2.3790571816        0.1423979221
 H         -6.9980324609       -2.5150916743       -2.1480912566
 H         -6.5971883400       -0.6847834683       -3.7523146920
 H         -5.2301780084        1.2631116582       -3.1005915664
 H         -4.2542421633        1.3648388368       -0.8045323242
 H         -2.6935405878       -1.7307439250        2.1191460569
 H         -2.8111353092       -1.6377118488       -1.4189361821
 H         -1.1075733896       -0.5147349844       -2.8221314625
 H          0.6291864961        0.8894889947       -1.7725118378
 H          0.9474654820        1.2017409572        1.9520246477
 C          0.6218188042        2.9163529474        0.7444909798
 C         -0.2971805050        3.4779489625       -0.2937247513
 C         -0.7396911983        3.4133987284        1.1355115008
 H         -0.8119382586        4.3315851148        1.6990125872
 H         -1.4907038397        2.6801921754        1.3960676174
 H         -0.0400967297        4.4357664272       -0.7192427747
 H         -0.7504984431        2.7993036704       -0.9981954449
 H          1.4639634594        3.5425793063        1.0230440755
