  62
        -98.94596597
 C         -1.5790102594       -1.5705060311       -0.3019350994
 C         -1.4249471688       -0.2061371224       -0.6488939405
 C         -2.6700131985        0.5690242621       -0.7528547726
 C         -3.8487192034       -0.0423537329       -0.5371899176
 C         -5.1823419927        0.6460237513       -0.5391603136
 C         -5.5511167967        1.1373141432        0.8681189557
 C         -4.4341481950        1.9146163260        1.5652488583
 H         -4.8180147109        2.2307120255        2.5377518273
 H         -3.5952825035        1.2408888746        1.7549660807
 C         -3.9333673572        3.1411371788        0.7897704119
 H         -4.6682864954        3.4265642941        0.0361227275
 H         -3.8395780705        3.9786982393        1.4841766910
 C         -2.5684145703        2.9582623108        0.1231469789
 H         -1.8479123109        2.5827331831        0.8540124048
 H         -2.2206105722        3.9399335878       -0.2078634426
 C         -2.5430245269        2.0265641566       -1.0944685492
 H         -1.5658116446        2.1330533810       -1.5737123883
 H         -3.3150364908        2.3260424573       -1.8059328028
 H         -5.7988790106        0.2691441098        1.4834683953
 H         -6.4414619401        1.7643008680        0.7926967720
 H         -5.1524035524        1.4845612699       -1.2320143744
 H         -5.9383196426       -0.0652757446       -0.8759392362
 O         -3.9562275479       -1.3617435412       -0.2322491331
 C         -2.8277213371       -2.1525829448       -0.0876596416
 O         -3.0643565240       -3.3362434507        0.2296473845
 O         -0.3115363913        0.3388954651       -0.8570934018
 C         -0.3476163827       -2.4418482190       -0.1228500883
 C          0.5125009451       -1.8301703216        0.9554338047
 C         -0.0139049446       -1.7266210108        2.2414763751
 C          0.7121169238       -1.1367059016        3.2570872909
 C          1.9738840733       -0.6241456390        3.0083167779
 C          2.5083867776       -0.7253866467        1.7299111412
 C          1.7829047789       -1.3346058954        0.7141480529
 H          2.2261996214       -1.4053176148       -0.2640545082
 N          3.7899430905       -0.2300839459        1.4558055922
 S          4.1805333218        0.4170946240       -0.0303649120
 O          4.3199774614       -0.6303584943       -1.0114580526
 O          5.3826296495        1.1829498527        0.2333898843
 C          2.8751652705        1.5393961636       -0.4958911245
 C          2.4659403301        1.5721152526       -1.8116862349
 C          1.5152605005        2.5020556748       -2.1968862778
 C          0.9886848004        3.3765362018       -1.2613656542
 C          1.4020532787        3.3247358592        0.0598498172
 C          2.3587897374        2.4025893079        0.4486116189
 H          2.6999188406        2.3479305240        1.4699556623
 H          0.9787159681        3.9983049063        0.7880909788
 H          0.2460077156        4.0992148682       -1.5622641748
 H          1.1823035517        2.5337761998       -3.2223917529
 H          2.8917394682        0.8650278680       -2.5060109473
 H          4.2320329533        0.2703332026        2.2122496766
 H          2.5412356089       -0.1543921693        3.7973387905
 H          0.2913295030       -1.0657686060        4.2488510533
 H         -1.0066258166       -2.1142028222        2.4287762057
 H         -0.7089746759       -3.4171211020        0.2329544282
 C          0.3693524798       -2.6374609153       -1.4410744643
 C          1.2909812858       -3.8045590033       -1.6223080427
 C         -0.0294169491       -3.7742590642       -2.3308617025
 H         -0.0394791173       -3.6146073706       -3.3986572310
 H         -0.8142819041       -4.4288812943       -1.9802327870
 H          2.1928423298       -3.6637524246       -2.1990414874
 H          1.4046478189       -4.4839190457       -0.7908597148
 H          0.6351680409       -1.7017429936       -1.9194327440
