  62
        -98.93861505
 C          1.8154050855        1.0456205494       -0.1129384204
 C          2.3733683176       -0.0917937712       -0.7396985272
 C          3.8410252798       -0.2239672973       -0.6721433634
 C          4.5636371839        0.7217050111       -0.0429661561
 C          6.0588023758        0.8733707562        0.1467974341
 C          7.0036375315       -0.2943158741       -0.1246556181
 C          6.8670442220       -1.4670951570        0.8460875246
 H          7.5082930985       -2.2782269618        0.4943565110
 H          7.2366929788       -1.1517387876        1.8250642199
 C          5.4505231413       -2.0023974229        1.0406074192
 H          5.4993767270       -2.8230663194        1.7614682157
 H          4.8217424988       -1.2257406608        1.4805883024
 C          4.7719813154       -2.5332202834       -0.2206405166
 H          3.8400924387       -3.0169302857        0.0850755762
 H          5.4043381900       -3.2907332733       -0.6878999820
 C          4.4149730603       -1.4728274723       -1.2764122863
 H          5.2684107118       -1.2399359375       -1.9086564139
 H          3.6333729016       -1.8878208185       -1.9197637062
 H          6.8974910141       -0.6338126633       -1.1507454843
 H          8.0193144441        0.0983983740       -0.0254689519
 H          6.3547265939        1.7130249670       -0.4918110947
 H          6.1946221327        1.2104838033        1.1793492481
 O          3.9768336648        1.8133488414        0.5315495332
 C          2.6062973473        1.9987543498        0.5245380111
 O          2.2215800275        3.0290802991        1.1134278658
 H         -1.8576835012       -0.1714732828       -1.0959689074
 C         -1.4760617176       -0.5443862733       -0.1605536154
 C         -0.3883031050        0.0562149076        0.4528878970
 C          0.0705091992       -0.4693256472        1.6590136805
 C         -0.5221659906       -1.5842667473        2.2167684354
 C         -1.5985887725       -2.1913348212        1.5931586959
 C         -2.0741459051       -1.6673130851        0.3983952300
 N         -3.1623384711       -2.2626548624       -0.2568516790
 S         -4.3252883063       -1.3037898331       -0.9729281525
 O         -5.5043252172       -2.1418328273       -1.0218618029
 O         -3.8607305800       -0.8001901465       -2.2402585703
 C         -4.5809869060        0.0439145199        0.1686166741
 C         -4.4068920841        1.3442482610       -0.2561918943
 C         -4.5944022295        2.3772109037        0.6486654577
 C         -4.9484243305        2.0920488405        1.9578354922
 C         -5.1257557225        0.7794908616        2.3686073524
 C         -4.9418906364       -0.2562657298        1.4676615063
 H         -5.0825409815       -1.2856282066        1.7543229022
 H         -5.4045330437        0.5617852642        3.3870041701
 H         -5.0886430387        2.8975529732        2.6613365774
 H         -4.4613994315        3.3986738192        0.3290131448
 H         -4.1267946321        1.5219952804       -1.2815191979
 H         -3.5686784684       -3.0512917227        0.2240180046
 H         -2.0575367967       -3.0695392065        2.0210767681
 H         -0.1454755894       -1.9854702021        3.1455722534
 H          0.9131340384        0.0035658911        2.1454367593
 C          0.3126716442        1.2599968907       -0.1272168641
 H          0.1220070856        2.1201691745        0.5314354344
 C         -0.1411577322        1.6108870063       -1.5288240258
 C         -1.3173954596        2.5134497678       -1.7413018782
 C          0.0678396508        3.0084467046       -2.0268791729
 H          0.3663680494        3.1509062623       -3.0546900927
 H          0.5112137213        3.7158034348       -1.3409447116
 H         -1.9725074349        2.3127994705       -2.5762394993
 H         -1.8169934844        2.8935358700       -0.8632505971
 H          0.0169828084        0.8020849743       -2.2336712646
 O          1.6835315869       -0.9608909147       -1.3342899997
