  62
        -98.94522461
 C          0.9671853192        1.5315881665       -0.6696619729
 C          2.1957868079        1.7862420674       -0.0042729630
 C          3.2319732046        0.7574179055       -0.1301579811
 C          2.9889819241       -0.3431793854       -0.8644173289
 C          3.9491288187       -1.4764080097       -1.1059226068
 C          3.9826766655       -2.5205652621        0.0183142090
 C          4.6629049700       -2.0690372954        1.3110239598
 H          4.8114569762       -2.9604527901        1.9237207524
 H          5.6495211954       -1.6648824553        1.0824887033
 C          3.8580428196       -1.0423921177        2.1203036145
 H          2.8209099189       -1.0376823555        1.7766900694
 H          3.8463663895       -1.3342854641        3.1728024142
 C          4.4047258398        0.3833878192        2.0519377105
 H          5.3933130590        0.4211142084        2.5152381315
 H          3.7393307635        1.0347991015        2.6243597181
 C          4.5102478169        0.9476303554        0.6292684263
 H          5.3406195106        0.4811795615        0.0994513481
 H          4.6984901782        2.0218397455        0.6991663344
 H          4.5193117355       -3.3921210325       -0.3634175212
 H          2.9580275040       -2.8237670934        0.2381457101
 H          3.6221510753       -1.9683239326       -2.0242381890
 H          4.9516248650       -1.0773379566       -1.2644072572
 O          1.8130949599       -0.5381126898       -1.5141335722
 C          0.7716242672        0.3768826294       -1.4284950806
 O         -0.2364088752        0.0339837464       -2.0768287908
 O          2.4175298352        2.8351956626        0.6584111959
 C         -0.1192191164        2.5786700519       -0.4964705693
 C         -1.0640875983        2.1976846918        0.6190425300
 C         -1.2736435484        3.0494290005        1.6970500439
 C         -2.1451050865        2.6960725100        2.7120672099
 C         -2.8211811513        1.4908275127        2.6696889667
 C         -2.6117312720        0.6268865121        1.5989706286
 C         -1.7381477161        0.9846684553        0.5828204233
 H         -1.5905238329        0.3169813138       -0.2505273062
 N         -3.2413523926       -0.6209912415        1.5629365109
 S         -3.5029336056       -1.4661804597        0.1490739508
 O         -3.9443787365       -0.6038591229       -0.9217691020
 O         -4.4428016912       -2.4992706068        0.5391028711
 C         -1.9505208767       -2.2455270189       -0.2339713740
 C         -1.6568955283       -2.5216673634       -1.5530805566
 C         -0.4876862327       -3.2020151793       -1.8518538532
 C          0.3628209918       -3.5930031075       -0.8312788031
 C          0.0555704541       -3.3039176370        0.4895827615
 C         -1.1135261628       -2.6268754443        0.7953929817
 H         -1.3784359039       -2.3842837963        1.8115264895
 H          0.7215184611       -3.6042122215        1.2839402238
 H          1.2722840280       -4.1225687775       -1.0696685815
 H         -0.2410040378       -3.4125322647       -2.8800693469
 H         -2.3344361027       -2.1834652513       -2.3204588857
 H         -3.9499342452       -0.7862926483        2.2612107378
 H         -3.5015776225        1.2131226521        3.4600185834
 H         -2.3009783682        3.3658659837        3.5440331378
 H         -0.7396051280        3.9870714620        1.7413091558
 H          0.4088867320        3.4925034935       -0.1904007301
 C         -0.9018419005        2.8804269604       -1.7590766586
 C         -1.5370951114        4.2284312392       -1.9148390975
 C         -0.3493175543        3.8577261870       -2.7505460298
 H         -0.4945647630        3.6610471084       -3.8020698628
 H          0.5998551471        4.3194376664       -2.5197836332
 H         -2.5039231645        4.2877651225       -2.3908487881
 H         -1.3927721145        4.9464559584       -1.1216880458
 H         -1.4389022435        2.0247275542       -2.1481843797
