  62
        -98.94870134
 C          1.4117870733        1.0206747904        0.9237950982
 C          2.4427002638        0.4806946299        0.1185867273
 C          2.7908603053       -0.9210105891        0.3829074384
 C          2.0860922097       -1.6288342530        1.2829185866
 C          2.2948368301       -3.0770707808        1.6334551803
 C          1.6300258112       -4.0490689731        0.6485494305
 C          2.3417475953       -4.2011292996       -0.6965389405
 H          3.4039930045       -4.3858019225       -0.5299727140
 H          1.9266599446       -5.0889974155       -1.1781352309
 C          2.1627402574       -3.0054291848       -1.6424875372
 H          1.3018691458       -2.4124235036       -1.3244708637
 H          1.9354077371       -3.3707273958       -2.6474860701
 C          3.3851191792       -2.0951469416       -1.7608712896
 H          3.1187405056       -1.2513066925       -2.4025396220
 H          4.2026941400       -2.6401398771       -2.2399121639
 C          3.8932166095       -1.5334543936       -0.4279607524
 H          4.3914351645       -2.3168582938        0.1433863402
 H          4.6178762682       -0.7449024373       -0.6477364535
 H          1.5919119692       -5.0292781768        1.1303055037
 H          0.6024027450       -3.7217406370        0.4694658328
 H          3.3621001109       -3.2927920528        1.6955417579
 H          1.8520266489       -3.2267173278        2.6207002586
 O          1.0769956256       -1.0845987793        2.0125060299
 C          0.7108597573        0.2404402808        1.8439072193
 O         -0.2383859560        0.6054784171        2.5681771825
 O          3.0536947019        1.1282325784       -0.7720313836
 C          0.9023343235        2.4356795616        0.6898989123
 C          0.2044952031        2.4239570636       -0.6495058177
 C          0.5514719365        3.2233311695       -1.7290203231
 C         -0.0868644545        3.0588910564       -2.9477691236
 C         -1.0562486726        2.0878870179       -3.1200951539
 C         -1.4204188985        1.2931445376       -2.0377643209
 C         -0.8151872616        1.4931861657       -0.8103990028
 H         -1.1039799694        0.8801811898        0.0307072569
 N         -2.3959148493        0.2920756474       -2.1534805275
 S         -2.2482324658       -1.1060939511       -1.2411648073
 O         -0.8688652655       -1.4763205589       -1.0285812999
 O         -3.0556572292       -2.0784711223       -1.9514342503
 C         -3.0517993330       -0.7270698038        0.2996697649
 C         -2.5553528424       -1.2687445475        1.4674948868
 C         -3.2093893159       -1.0060030130        2.6603586606
 C         -4.3448663022       -0.2121044915        2.6627113086
 C         -4.8351572714        0.3201449280        1.4795895607
 C         -4.1866381242        0.0597524147        0.2837502886
 H         -4.5350155642        0.4589712505       -0.6542747450
 H         -5.7178602044        0.9392728708        1.4870414746
 H         -4.8478384424       -0.0048947492        3.5941663928
 H         -2.8188287514       -1.4116840878        3.5795605607
 H         -1.6563327749       -1.8642861228        1.4300439507
 H         -2.7155903579        0.1039874088       -3.0922851880
 H         -1.5240069388        1.9387765306       -4.0813277050
 H          0.1938496695        3.6812345790       -3.7840495267
 H          1.3316790277        3.9590480082       -1.6241756402
 H          0.1462841242        2.6180622081        1.4670226684
 C          1.9978180935        3.4694219321        0.8155276333
 C          1.6415695773        4.8947076370        1.1112359451
 C          2.2960657882        4.0520503458        2.1631750198
 H          3.3251848067        4.2524603827        2.4206356859
 H          1.6960837847        3.7140809544        2.9956651087
 H          2.2223057084        5.6781748365        0.6486429076
 H          0.5956249165        5.1328786818        1.2318780469
 H          2.8372536865        3.2756461671        0.1591982126
