  62
        -98.93436132
 C          1.8074007931        0.6928857358        0.7030541520
 C          2.0885317610       -0.5338944963        0.0542960878
 C          3.4988186381       -0.9750702261        0.0746249423
 C          4.4145857966       -0.2353240953        0.7209604268
 C          5.8961417366       -0.4765984049        0.8033751955
 C          6.6332564516        0.3031782879       -0.2986254278
 C          6.7470887242       -0.4250241565       -1.6375122778
 H          7.1611986797        0.2836245914       -2.3585205380
 H          7.4604768752       -1.2460500166       -1.5395086025
 C          5.4348224445       -0.9828837467       -2.1951542684
 H          4.6378100437       -0.2484924974       -2.0654516342
 H          5.5646074253       -1.1314311426       -3.2689961412
 C          5.0263243347       -2.3186903491       -1.5560218492
 H          5.8733756493       -2.7185759578       -0.9986847392
 H          4.8056506583       -3.0425506367       -2.3433597996
 C          3.7895652178       -2.2637719865       -0.6449796453
 H          2.8908697169       -2.4590413803       -1.2386535648
 H          3.8542468265       -3.0693261276        0.0940690203
 H          6.1142163254        1.2548455523       -0.4396222528
 H          7.6429813991        0.5311778107        0.0487012727
 H          6.2206926934       -0.0969232885        1.7744960409
 H          6.1178362939       -1.5383590578        0.7501110160
 O          4.0938010562        0.9155122273        1.3728102439
 C          2.8016743670        1.4030358922        1.3842348942
 O          2.6616105897        2.4608678603        2.0292764048
 H         -1.2628297794       -0.2195455972       -0.7781444836
 C         -1.3843862641       -0.4162268200        0.2757314846
 C         -0.5956955637        0.2591841456        1.1938866948
 C         -0.7514774963       -0.0326523622        2.5447872178
 C         -1.6789024282       -0.9686769047        2.9667863227
 C         -2.4646341562       -1.6407311938        2.0465370549
 C         -2.3002704114       -1.3695112246        0.6962935223
 N         -3.1194367822       -2.0423408335       -0.2456596071
 S         -4.6688581119       -1.4137046852       -0.3409134818
 O         -5.3312376619       -1.6289378109        0.9198502886
 O         -5.2819032751       -2.0162893309       -1.5027424434
 C         -4.4144925190        0.3317344531       -0.6098932011
 C         -4.2329171425        1.1561427376        0.4825689754
 C         -3.9253188272        2.4903744144        0.2697811213
 C         -3.8002247697        2.9729363567       -1.0242357424
 C         -3.9872462475        2.1321554653       -2.1109637004
 C         -4.2905383872        0.7961292213       -1.9041286305
 H         -4.4435953493        0.1082789527       -2.7204680624
 H         -3.8906333269        2.5119562716       -3.1155268046
 H         -3.5539817110        4.0108537774       -1.1859589529
 H         -3.7747150435        3.1454980542        1.1129397875
 H         -4.3376287432        0.7431783403        1.4726406654
 H         -2.7103183195       -2.0562753016       -1.1700607751
 H         -3.2048606418       -2.3620296406        2.3527377503
 H         -1.7914253453       -1.1768989017        4.0200433486
 H         -0.1340659964        0.4860895596        3.2654687724
 C          0.4117160842        1.2933562474        0.7623331079
 H          0.4714933249        2.0558836671        1.5547361120
 C         -0.0219731556        2.0186478086       -0.5043604881
 C          0.9463009696        2.8806828718       -1.2560856271
 C          0.4270093192        1.6199923346       -1.8764136741
 H         -0.2833742112        1.7039563413       -2.6861164830
 H          1.0943567079        0.7778889256       -1.9687526509
 H          0.6029431021        3.8277896643       -1.6431067414
 H          1.9692239204        2.8955323140       -0.9079074750
 H         -1.0385298592        2.3912779283       -0.4194137998
 O          1.2269809113       -1.2372251934       -0.5339109865
