  62
        -98.94754352
 C         -1.3258452310       -1.6348562398       -0.5028667624
 C         -1.1902914908       -0.3254284224       -1.0285591566
 C         -2.3805664313        0.5344048803       -0.9253872303
 C         -3.5066424589        0.0529671489       -0.3713594879
 C         -4.7769904167        0.8290673407       -0.1790158177
 C         -4.8200488101        1.5037467786        1.1983443212
 C         -3.5554949746        2.2918174339        1.5407128093
 H         -3.7176230249        2.7624350176        2.5132570233
 H         -2.7160491267        1.6015372231        1.6587293599
 C         -3.1773053285        3.3648333580        0.5107520653
 H         -4.0392245263        3.6021675726       -0.1147223944
 H         -2.9007624294        4.2767949440        1.0444673859
 C         -1.9871929466        2.9912210772       -0.3753880580
 H         -1.6478969997        3.8988347275       -0.8839019684
 H         -1.1690989182        2.6353862385        0.2575242507
 C         -2.2624886446        1.9357397250       -1.4548111564
 H         -3.1546499369        2.2121825077       -2.0212634697
 H         -1.4078575215        1.9255791862       -2.1376253704
 H         -4.9581088563        0.7320433706        1.9591798535
 H         -5.6842043261        2.1702232346        1.2293630189
 H         -4.8607324322        1.5777607869       -0.9642939925
 H         -5.6162811580        0.1357833674       -0.2591353698
 O         -3.6052699859       -1.2111175915        0.1133514909
 C         -2.5208266105       -2.0693653913        0.0787676045
 O         -2.7460521022       -3.1911989981        0.5784019755
 H          1.2453928600       -0.4434989132        0.0274788002
 C          1.3882487271       -1.1939742454        0.7864336268
 C          0.7193741248       -2.4046751533        0.6823020834
 C          0.9038991439       -3.3584938738        1.6761764950
 C          1.7324492279       -3.0969415100        2.7534210706
 C          2.3778030929       -1.8785191722        2.8670137827
 C          2.1978081930       -0.9184827310        1.8773394119
 N          2.8439987732        0.3238027978        1.9421859312
 S          2.0850327401        1.6892799488        1.3350508622
 O          2.7775419583        2.7926202651        1.9734557261
 O          0.6582302125        1.6486163151        1.5601002470
 C          2.4788413354        1.7199696465       -0.4009211218
 C          1.7502485677        2.5664993959       -1.2104348012
 C          2.0588643051        2.6381716115       -2.5587104293
 C          3.0894275091        1.8675657986       -3.0719702052
 C          3.8175508301        1.0284566107       -2.2436153124
 C          3.5149161368        0.9532103239       -0.8934633968
 H          4.0559436099        0.2998377636       -0.2290275654
 H          4.6166480151        0.4260576883       -2.6456259657
 H          3.3223591533        1.9178728323       -4.1241862184
 H          1.4885988690        3.2879565467       -3.2034915726
 H          0.9475847844        3.1402835456       -0.7765631718
 H          3.3401427493        0.5149650122        2.7999803101
 H          3.0114935455       -1.6681100986        3.7151948292
 H          1.8675941524       -3.8447649242        3.5202247651
 H          0.3785852495       -4.3001081615        1.6098377767
 C         -0.1987915698       -2.6582908981       -0.4890001730
 H         -0.6833034295       -3.6316247488       -0.3318691436
 C          0.5858930322       -2.7154385705       -1.7854950769
 C          1.3572373031       -3.9577180120       -2.1109098017
 C          0.1200793704       -3.6182945146       -2.8859452242
 H          0.2229825194       -3.2805625154       -3.9060682415
 H         -0.7704901867       -4.2041138537       -2.7086348427
 H          2.3137809541       -3.8556006769       -2.5994268464
 H          1.3055307922       -4.7775456658       -1.4103936254
 H          1.0147237444       -1.7640658673       -2.0702718675
 O         -0.1480830349        0.1242795867       -1.5740797249
