  62
        -98.93917117
 C         -2.4201599298       -1.2158191420       -0.0662718580
 C         -3.5160433587       -0.9165302693        0.7790252854
 C         -4.4548665650        0.1138244090        0.3041922648
 C         -4.2190239630        0.7152709604       -0.8747181847
 C         -5.0098176808        1.8252384507       -1.5101739687
 C         -4.4175613481        3.1957880313       -1.1399612256
 C         -4.9460259411        3.7950687755        0.1627968774
 H         -4.3568012112        4.6914682100        0.3694858383
 H         -5.9817314186        4.1096178124        0.0181941104
 C         -4.8805547251        2.8717160066        1.3821668443
 H         -3.9223212331        2.3487718403        1.3956466843
 H         -4.9196426244        3.4962676611        2.2767497686
 C         -6.0326270562        1.8572479529        1.4338383695
 H         -6.7936473904        2.1458935696        0.7091215195
 H         -6.5080482416        1.9007662438        2.4158434688
 C         -5.6281856828        0.3936856631        1.2034614837
 H         -5.3570332450       -0.0631262097        2.1603152816
 H         -6.4944089787       -0.1606829381        0.8273354836
 H         -3.3309934594        3.0873212976       -1.0823507220
 H         -4.6316189039        3.8995370387       -1.9470312686
 H         -4.9234889475        1.6897401427       -2.5902888801
 H         -6.0573314853        1.7611620836       -1.2311548147
 O         -3.1456966380        0.4063264009       -1.6529364279
 C         -2.2224765173       -0.5551957286       -1.2783214621
 O         -1.3035916978       -0.7243411602       -2.1037530062
 O         -3.7015249046       -1.4862792936        1.8876094230
 C         -1.4239744331       -2.2660691817        0.3981469981
 C         -0.1178305843       -1.5749018200        0.7001807155
 C          0.0358036306       -0.9162887404        1.9174300067
 C          1.1928318664       -0.2153750489        2.1993653799
 C          2.2173859008       -0.1467181884        1.2706520657
 C          2.0659546512       -0.7843260693        0.0474465506
 C          0.9120312887       -1.5082475732       -0.2244977287
 H          0.8042864370       -1.9886304981       -1.1839564227
 N          3.0942740959       -0.7124051410       -0.9080059595
 S          3.7907470074        0.7833981994       -1.2157632335
 O          2.8699013013        1.8704234978       -0.9745911074
 O          4.3302493467        0.6809018836       -2.5544626616
 C          5.1431321970        0.8589285142       -0.0575256662
 C          6.0211833227       -0.2063019787       -0.0092702137
 C          7.0844259867       -0.1574807333        0.8779587925
 C          7.2534798950        0.9504780599        1.6950524518
 C          6.3659275947        2.0135893261        1.6319113224
 C          5.2993277634        1.9704022767        0.7472715838
 H          4.5800241854        2.7702007590        0.6685345336
 H          6.4985082364        2.8745369971        2.2673093447
 H          8.0815482858        0.9857052165        2.3852243817
 H          7.7763677519       -0.9825584067        0.9301822399
 H          5.8555273682       -1.0472910033       -0.6615281437
 H          2.8660328209       -1.1798867040       -1.7739786344
 H          3.1171660832        0.4090105762        1.4781242935
 H          1.2994822624        0.2863348053        3.1491477873
 H         -0.7728738878       -0.9514360225        2.6341753405
 H         -1.8315294799       -2.6540300901        1.3412537069
 C         -1.3034509781       -3.4097742843       -0.5865321397
 C         -0.6549208585       -4.6879274211       -0.1485931683
 C         -2.1340558960       -4.6398624397       -0.3829784149
 H         -2.5363735116       -5.1377688741       -1.2525153846
 H         -2.7898578818       -4.6628885631        0.4748804188
 H         -0.0393010129       -5.2231741088       -0.8551984918
 H         -0.3048357299       -4.7422513874        0.8709898040
 H         -1.1488122023       -3.0841359211       -1.6081734922
