  62
        -98.93420736
 C          2.5398876981        0.9446634061        0.5258077131
 C          2.2943885032        0.1298283311       -0.6033961537
 C          2.5215843106       -1.3185759552       -0.4347880580
 C          2.9351644647       -1.7804908419        0.7589923290
 C          3.2159939510       -3.2028344711        1.1712882473
 C          2.1487678368       -4.2384281358        0.7816381368
 C          2.6213039133       -5.2172484478       -0.2940073841
 H          3.6593324440       -5.4864860893       -0.0882767136
 H          2.0257381948       -6.1298954834       -0.2218006625
 C          2.5058778313       -4.7035456733       -1.7278484259
 H          1.4517968443       -4.6629317888       -2.0118809045
 H          2.9915944677       -5.4327687939       -2.3805571921
 C          3.1245996391       -3.3276163171       -1.9854060084
 H          4.0679479701       -3.2239658134       -1.4510452773
 H          3.3526847088       -3.2611454266       -3.0513380067
 C          2.1936273418       -2.1557545131       -1.6408920290
 H          2.1778497042       -1.4434428902       -2.4724383688
 H          1.1614415707       -2.5091328599       -1.5398255660
 H          1.2399463017       -3.7305844285        0.4583050518
 H          1.8960718168       -4.8123189064        1.6747640676
 H          4.1867936822       -3.5004466146        0.7689428747
 H          3.3232940293       -3.1690596306        2.2577016205
 O          3.1808239643       -0.9517045819        1.8152261757
 C          2.9697280565        0.4129133311        1.7387686822
 O          3.1877696983        1.0312522714        2.8009062932
 H          0.1349645046        1.0858469747        1.3325666293
 C         -0.1554955341        1.8253334308        0.5941959927
 C          0.8182603648        2.6414656397        0.0322601342
 C          0.4221275595        3.5846116925       -0.9067384679
 C         -0.9043263489        3.6784962411       -1.2932726614
 C         -1.8618455497        2.8368053271       -0.7578669810
 C         -1.4785436749        1.9045551973        0.1951809883
 N         -2.4493395579        1.0170048625        0.7272257002
 S         -2.8465715759       -0.2740178142       -0.2961688914
 O         -2.0875974039       -1.4437826455        0.1000470599
 O         -2.7264321058        0.1492387386       -1.6669434620
 C         -4.5657130777       -0.5117810685        0.1104001756
 C         -4.9387255961       -1.5244826989        0.9715839586
 C         -6.2780163202       -1.6646617485        1.3013338314
 C         -7.2148049079       -0.7910686290        0.7710833172
 C         -6.8243102437        0.2221937417       -0.0920142111
 C         -5.4875908095        0.3658830299       -0.4260370467
 H         -5.1385816235        1.1311893848       -1.0992839277
 H         -7.5555113824        0.8989275708       -0.5038659885
 H         -8.2558932618       -0.9017282815        1.0302615893
 H         -6.5842524849       -2.4530803766        1.9699710317
 H         -4.1774052737       -2.1845364746        1.3550158312
 H         -2.1354321496        0.6107000857        1.5995676314
 H         -2.8901115986        2.8792328757       -1.0765829208
 H         -1.1921867749        4.4096091063       -2.0333820508
 H          1.1570011617        4.2355363140       -1.3518200912
 C          2.2528221756        2.4341008952        0.4572974011
 H          2.3730531104        2.8169948134        1.4816040123
 C          3.2538057653        3.1257427369       -0.4444196210
 C          3.6446323696        4.5498727981       -0.1900619507
 C          4.6136477440        3.4440090246        0.0980369228
 H          5.4684786435        3.3217242262       -0.5498707974
 H          4.8066728103        3.1844915800        1.1289566724
 H          3.8388345187        5.1900700836       -1.0373031099
 H          3.1870239961        5.0520443389        0.6487859062
 H          3.1902677224        2.7836077415       -1.4711109455
 O          1.8965849789        0.5884989979       -1.7069206122
