  62
        -98.93438519
 C         -2.5627505128       -0.9247620972       -0.0769589921
 C         -2.1419294542        0.0965587051       -0.9622202281
 C         -2.6719013736        1.4525404631       -0.7046229653
 C         -3.5431015426        1.6511452559        0.3007168189
 C         -4.2801582654        2.8919507327        0.7624014520
 C         -3.8782780572        4.2730293605        0.2528472132
 C         -2.5140706338        4.7609139711        0.7421556078
 H         -2.2662963376        5.6811486391        0.2091142902
 H         -2.5953936414        5.0026240297        1.8048754829
 C         -1.3614832387        3.7710512249        0.5872028746
 H         -1.5664452418        2.8704847680        1.1700256664
 H         -0.4644327787        4.2277687173        1.0138271101
 C         -1.0282038579        3.3628121384       -0.8462789804
 H         -0.8102711670        4.2519659945       -1.4421932209
 H         -0.1217769865        2.7504905957       -0.8106741719
 C         -2.1113328494        2.5448318810       -1.5687626504
 H         -2.9019915085        3.1846833814       -1.9535540065
 H         -1.6418731735        2.0502276907       -2.4245424123
 H         -3.9304446998        4.3014686578       -0.8315461637
 H         -4.6312658919        4.9735057893        0.6241391227
 H         -4.2237387427        2.8826077013        1.8555175358
 H         -5.3318340675        2.7209643846        0.5073021806
 O         -3.9626095165        0.6222219374        1.0955804448
 C         -3.4686314461       -0.6589771309        0.9519824282
 O         -3.9196415000       -1.4731787271        1.7839612736
 O         -1.3684527466       -0.0846883357       -1.9402928623
 C         -2.0684613191       -2.3595988394       -0.1374891329
 C         -0.7687529166       -2.5372276535        0.6141549239
 C         -0.5952553912       -3.6244878467        1.4632574722
 C          0.6007270858       -3.8121137097        2.1319414220
 C          1.6440092070       -2.9205767770        1.9662264250
 C          1.4771950630       -1.8213065668        1.1294176872
 C          0.2774094553       -1.6393231280        0.4564983109
 H          0.1709212505       -0.7913013603       -0.2015831734
 N          2.5061928946       -0.8781584888        0.9958088434
 S          2.6420515457        0.0547965250       -0.4031735508
 O          1.7221795277        1.1589276241       -0.3170413308
 O          2.5628281936       -0.7870460708       -1.5749426788
 C          4.3116745851        0.6499547438       -0.1987812310
 C          5.3523629334       -0.0489485073       -0.7810111338
 C          6.6505795333        0.3979391535       -0.5913511124
 C          6.8855807684        1.5292724132        0.1755552200
 C          5.8312355195        2.2216308320        0.7523218977
 C          4.5308219582        1.7799209083        0.5658598646
 H          3.6790146279        2.2888394995        0.9864010250
 H          6.0171594320        3.1027825889        1.3449429711
 H          7.8965036348        1.8755071602        0.3218191534
 H          7.4716586358       -0.1362555513       -1.0415824726
 H          5.1203945001       -0.9165109834       -1.3777425150
 H          3.4031082619       -1.2188312090        1.3127373571
 H          2.5782018469       -3.0641601035        2.4872979375
 H          0.7227679527       -4.6613566708        2.7868273724
 H         -1.4104036686       -4.3186027039        1.6041430271
 H         -2.8334099345       -2.9574347612        0.3785783501
 C         -1.9144017904       -2.9005557084       -1.5466149751
 C         -2.0684304305       -4.3710568157       -1.7872982928
 C         -3.1189176709       -3.4177650651       -2.2710146337
 H         -3.2022868249       -3.2268892789       -3.3302146047
 H         -4.0634027650       -3.3907287907       -1.7466960004
 H         -1.4254205120       -4.8408752284       -2.5155984760
 H         -2.3073599755       -4.9971824891       -0.9411733477
 H         -1.1719962572       -2.3684584941       -2.1278483955
