  62
        -98.93176274
 C         -1.9115648701       -0.1605720807        0.9182068095
 C         -2.7575151202       -0.8354339598        0.0072864290
 C         -4.1317606201       -0.3055302095       -0.1324222306
 C         -4.5063331599        0.7611159100        0.5944086402
 C         -5.8308516098        1.4821211903        0.6097120907
 C         -7.0961853700        0.6106976305        0.6097996501
 C         -7.8676778799        0.6571758416       -0.7104547899
 H         -8.9113966200        0.4013402017       -0.5143972301
 H         -7.8495556697        1.6820609819       -1.0872154291
 C         -7.3564822501       -0.2885428577       -1.7959181106
 H         -7.8948024000       -0.0551549369       -2.7176204104
 H         -7.6061137103       -1.3170221678       -1.5260182814
 C         -5.8537770201       -0.2135212877       -2.0728904305
 H         -5.5153527599        0.8221140222       -2.0641409998
 H         -5.6808373001       -0.5960539870       -3.0811174608
 C         -5.0075995102       -1.0511858186       -1.1023358912
 H         -5.6506257904       -1.7368508589       -0.5433032517
 H         -4.3162353403       -1.6824047983       -1.6692229116
 H         -7.7548043799        0.9823353700        1.3965809803
 H         -6.8398356801       -0.4165984798        0.8635625293
 H         -5.8571129797        2.1731231309       -0.2368461187
 H         -5.8054406797        2.0986076996        1.5113263612
 O         -3.6518901098        1.3866962692        1.4553740307
 C         -2.3532078799        0.9547326789        1.6331911504
 O         -1.6953561298        1.6283997781        2.4526950009
 O         -2.4053586804       -1.8323409594       -0.6730714917
 C         -0.4714854602       -0.5685184311        1.1823143693
 C          0.4570459700        0.1030076294        0.2039839898
 C          0.2454389400        0.0132289305       -1.1683148703
 C          1.1112877301        0.6282622210       -2.0540727898
 C          2.2072962402        1.3363986005       -1.5924848893
 C          2.4305259402        1.4263543594       -0.2254778592
 C          1.5571523601        0.8123337789        0.6628486403
 H          1.7270720701        0.9006675881        1.7275205004
 N          3.5701362303        2.1134273588        0.2413311113
 S          5.0405669502        1.5067980790       -0.2981769791
 O          6.0200570503        1.9524031681        0.6664469612
 O          5.2543776803        1.9203382200       -1.6612030888
 C          4.8249871599       -0.2613441510       -0.2141796305
 C          4.4644154798       -0.9618152901       -1.3475226410
 C          4.1900175095       -2.3157277002       -1.2377573520
 C          4.2800296594       -2.9422403111       -0.0048420225
 C          4.6545834395       -2.2268189420        1.1223676081
 C          4.9228542598       -0.8715398220        1.0208248191
 H          5.2171103599       -0.2807350827        1.8738192795
 H          4.7284723694       -2.7189278727        2.0788973677
 H          4.0540889592       -3.9930707911        0.0797116167
 H          3.8996710794       -2.8752608094       -2.1123324824
 H          4.4088487199       -0.4397894594       -2.2883371106
 H          3.5885950003        2.2196935281        1.2457989714
 H          2.8968349403        1.8163678509       -2.2682022689
 H          0.9323446201        0.5543508318       -3.1160473199
 H         -0.6011637301       -0.5497775191       -1.5300554807
 H         -0.2436446601       -0.1665893219        2.1821805196
 C         -0.2715338104       -2.0778191112        1.2443324981
 C          0.5633707694       -2.8455346306        0.2677333975
 C          1.0591795795       -2.6295561118        1.6634720477
 H          1.0812671493       -3.4655415023        2.3456087671
 H          1.8659229296       -1.9244408920        1.7988150283
 H          0.2165584193       -3.8268490204       -0.0167990132
 H          1.0466164495       -2.3052161401       -0.5307901320
 H         -1.1501409205       -2.5860838813        1.6267215477
