  62
        -98.93653228
 C         -1.1893628666       -0.6657381924        0.6478755579
 C         -2.0122913111       -0.6536438379       -0.5044791353
 C         -2.9550877146        0.4693233249       -0.5959664962
 C         -2.9416287245        1.4362935475        0.3387180303
 C         -3.8190555581        2.6586529109        0.3623398846
 C         -5.2059222280        2.4222342363        0.9762678660
 C         -6.1703450422        1.6098632063        0.1110694940
 H         -7.1612612250        1.7073063772        0.5589347347
 H         -6.2186819969        2.0493081286       -0.8857038045
 C         -5.8213822670        0.1189046938        0.0028568196
 H         -5.1232268933       -0.1496824560        0.7989014384
 H         -6.7238528311       -0.4778279014        0.1526279729
 C         -5.2211476148       -0.2960783708       -1.3404511115
 H         -4.9779349750       -1.3604378758       -1.2932399206
 H         -5.9600572326       -0.1533411534       -2.1319489080
 C         -3.9439441639        0.4637385537       -1.7223410632
 H         -4.1860764597        1.4833730089       -2.0221674442
 H         -3.4776761145       -0.0479456217       -2.5679829449
 H         -5.0798424440        1.9298759428        1.9433289819
 H         -5.6519328907        3.4027566725        1.1582493495
 H         -3.9277552920        3.0497115509       -0.6498730771
 H         -3.2950783558        3.4039319870        0.9651892134
 O         -2.0834801847        1.4234090452        1.3939225507
 C         -1.1952873802        0.3758118606        1.5738203095
 O         -0.4657834754        0.4877990107        2.5823019553
 O         -1.9613831495       -1.5221817172       -1.4110466631
 C         -0.1927533848       -1.7986032835        0.8610854412
 C          0.7192973705       -1.8624087946       -0.3443498438
 C          1.1147656252       -2.9784073339       -1.0698774836
 C          1.9929500496       -2.8516006364       -2.1354201202
 C          2.5173802550       -1.6265328595       -2.4977683379
 C          2.1321602083       -0.4989198881       -1.7805358130
 C          1.2497222302       -0.6313769860       -0.7245700087
 H          0.9398375189        0.2575029863       -0.1981187680
 N          2.6189643036        0.7736176173       -2.1089096623
 S          2.7722681797        1.9612103716       -0.9464260475
 O          1.4777678691        2.4730723909       -0.5693770036
 O          3.6766537209        2.9197260858       -1.5468460018
 C          3.5830239934        1.1675023497        0.4310424115
 C          2.9194573957        0.9469371969        1.6202261576
 C          3.5862775096        0.2942530646        2.6462263523
 C          4.8958036752       -0.1224163745        2.4689277890
 C          5.5523927925        0.1148866027        1.2704219270
 C          4.8912601479        0.7634408068        0.2412511503
 H          5.3712035932        0.9782565138       -0.6996031455
 H          6.5729815826       -0.2049568496        1.1359029225
 H          5.4066169540       -0.6317395985        3.2707490431
 H          3.0666693496        0.1139656071        3.5739711563
 H          1.8971165994        1.2727874604        1.7395115666
 H          3.3637526207        0.7944563504       -2.7886971922
 H          3.2009200513       -1.5368444586       -3.3276059401
 H          2.2761316638       -3.7331941950       -2.6903966265
 H          0.7398259151       -3.9582746463       -0.8387411338
 H          0.4415924664       -1.4703823938        1.7029028777
 C         -0.9613660888       -3.0125456949        1.3623879352
 C         -1.5451354265       -4.0902565401        0.5050066840
 C         -0.4292902108       -4.4117912300        1.4557751463
 H         -0.6749071837       -4.9765962121        2.3433225691
 H          0.5552384823       -4.6225797228        1.0731057895
 H         -2.5389310167       -4.4389624862        0.7470636578
 H         -1.3593145188       -4.0448535479       -0.5552940570
 H         -1.5808500106       -2.7014801960        2.2021972355
