  62
        -98.94008644
 C         -1.7210434987       -1.1064247600        0.2677460449
 C         -2.0534339304        0.0316804985       -0.5081454139
 C         -3.4721493351        0.1579910195       -0.8838551189
 C         -4.3539182632       -0.7725016287       -0.4783114229
 C         -5.8294748980       -0.7365630211       -0.7496557061
 C         -6.5848555010       -0.0177702390        0.3769575120
 C         -5.9810715311        1.3327902847        0.7622017710
 H         -4.9935779271        1.1707972141        1.2004822601
 H         -6.6130709434        1.7606045770        1.5434621421
 C         -5.8599946752        2.3288886313       -0.3995064932
 H         -6.2059294736        3.3073105720       -0.0596000321
 H         -6.5102678587        2.0227919591       -1.2198387484
 C         -4.4364001427        2.5192906127       -0.9266498191
 H         -3.7610501099        2.7340723285       -0.0943410943
 H         -4.4309634420        3.3926293106       -1.5845300684
 C         -3.8569655205        1.3435861591       -1.7234227431
 H         -2.9328352541        1.6884434237       -2.1972882707
 H         -4.5566070628        1.0503416016       -2.5090775368
 H         -6.5801200702       -0.6593181955        1.2611126125
 H         -7.6210715377        0.1211776865        0.0634814872
 H         -6.0065073455       -0.2342281295       -1.6986799485
 H         -6.1911472464       -1.7638538632       -0.8195972217
 O         -4.0013132358       -1.8404823805        0.2815395166
 C         -2.6890814733       -2.0236812533        0.6863424627
 O         -2.5139920321       -3.0230500362        1.4109921153
 H          1.8601362515        0.0333340772       -0.2616369090
 C          1.4467106279        0.4710057953        0.6301820653
 C          0.3332641145       -0.0932990602        1.2316036217
 C         -0.2184398434        0.5367362317        2.3442016870
 C          0.3219972610        1.7117820314        2.8286498399
 C          1.4358229301        2.2714947197        2.2283053006
 C          1.9995525177        1.6460028334        1.1217381170
 N          3.1526767586        2.1688245234        0.5364825881
 S          3.9113358837        1.5719087199       -0.8105452067
 O          5.0739567996        2.4235669901       -0.9532187189
 O          3.0443451173        1.5036794108       -1.9622494165
 C          4.4281256203       -0.0661127851       -0.3354453867
 C          4.9710947786       -0.2625113196        0.9186119693
 C          5.3775852150       -1.5371162683        1.2797289725
 C          5.2387922316       -2.5879329344        0.3858265186
 C          4.6981602728       -2.3736640676       -0.8725825234
 C          4.2903567047       -1.1009300548       -1.2386607335
 H          3.8574476519       -0.8889502743       -2.2037978699
 H          4.5902941628       -3.1912720097       -1.5674924595
 H          5.5517767098       -3.5800207761        0.6708875630
 H          5.7986914409       -1.7080657566        2.2573585237
 H          5.0640865110        0.5741469490        1.5907549915
 H          3.4663005309        3.0741232955        0.8447277972
 H          1.8600060382        3.1892987117        2.6054909275
 H         -0.1247246308        2.1971565482        3.6835936169
 H         -1.0896021270        0.0988877098        2.8133846818
 C         -0.2995867319       -1.3697196824        0.7360580703
 H         -0.4069419172       -2.0468402890        1.5999046611
 C          0.5621814984       -2.1022256411       -0.2821497940
 C         -0.0396432885       -3.0880976213       -1.2370635158
 C          0.5090372616       -1.7907810422       -1.7461282230
 H          1.4312842013       -1.8055402829       -2.3081480582
 H         -0.1793975161       -1.0266650323       -2.0715426828
 H         -1.1118888050       -3.2180517640       -1.2145680571
 H          0.5052123667       -3.9959554590       -1.4467443360
 H          1.5357697474       -2.3609542133        0.1245549894
 O         -1.2257451196        0.9051656025       -0.8752802815
