  62
        -98.94565083
 C         -2.4909419219       -1.1615602250       -0.0204257596
 C         -3.1169397878       -0.2972403006        0.9090340579
 C         -3.6830832515        0.9377388768        0.3569888664
 C         -3.5823399712        1.1862499081       -0.9616797722
 C         -4.1175337288        2.3971333587       -1.6766467758
 C         -3.1765102707        3.6090345726       -1.6321993023
 C         -3.0839212318        4.3102941200       -0.2763763354
 H         -2.5678306666        5.2582269374       -0.4405994657
 H         -4.0875786686        4.5419886214        0.0816513872
 C         -2.3237487189        3.5168469907        0.7959630429
 H         -1.7259679828        2.7365962801        0.3162373724
 H         -1.6210177887        4.1778686565        1.3093528174
 C         -3.2155153929        2.8819583708        1.8638896342
 H         -2.5786174678        2.3183727762        2.5509369467
 H         -3.7138983386        3.6672691410        2.4363183829
 C         -4.2817486169        1.9259109429        1.3122269141
 H         -4.7053811950        1.3659742276        2.1494918444
 H         -5.0781536315        2.4900809141        0.8281669366
 H         -2.1788737761        3.2896642367       -1.9447859691
 H         -3.5394606892        4.3315973046       -2.3667446737
 H         -4.2543559664        2.1065185804       -2.7203359490
 H         -5.0871945534        2.6717177502       -1.2607269380
 O         -2.9739039644        0.3297129882       -1.8235345947
 C         -2.3818808611       -0.8429628124       -1.3745861102
 O         -1.8152521133       -1.5021699304       -2.2657783368
 O         -3.1915233293       -0.5426422610        2.1440941413
 C         -1.8284649559       -2.4293338844        0.4925949746
 C         -0.3357960986       -2.2870483164        0.3211278767
 C          0.4533143578       -3.1724930151       -0.3991013869
 C          1.8084400336       -2.9330443309       -0.5554405732
 C          2.4035473465       -1.8167333801        0.0025716138
 C          1.6238268890       -0.9289654949        0.7331727914
 C          0.2705738219       -1.1732123427        0.8914158093
 H         -0.3376306964       -0.4754246141        1.4551162042
 N          2.2226923942        0.2170660712        1.3014365337
 S          2.8458816616        1.3250195438        0.1955621335
 O          2.8552825139        2.5939955177        0.8911598384
 O          2.1238825273        1.2841580734       -1.0564577996
 C          4.5222105541        0.7752553677       -0.0388848567
 C          5.3599507663        0.7601850419        1.0593735787
 C          6.6658265921        0.3257692287        0.8980975690
 C          7.1093998617       -0.0813594613       -0.3515804833
 C          6.2567847857       -0.0562762691       -1.4447777355
 C          4.9485138141        0.3758864754       -1.2901477288
 H          4.2464277440        0.4058155615       -2.1082469800
 H          6.6031231056       -0.3729932484       -2.4154388118
 H          8.1257682388       -0.4206125927       -0.4746542923
 H          7.3319307150        0.3050717360        1.7454878147
 H          4.9749907084        1.0897220935        2.0098453888
 H          1.6077760046        0.7010823218        1.9416054774
 H          3.4569124172       -1.6258467075       -0.1225719298
 H          2.4089264520       -3.6255256341       -1.1252493267
 H          0.0054745494       -4.0415943368       -0.8516411660
 H         -2.0473000828       -2.4555385358        1.5703506154
 C         -2.4119643392       -3.6650978785       -0.1550674166
 C         -2.3116992463       -4.9890228766        0.5403097950
 C         -3.6338791133       -4.2907280004        0.4453854639
 H         -4.3851938409       -4.6920368669       -0.2179030839
 H         -4.0386820798       -3.8349697710        1.3372716067
 H         -2.1566979963       -5.8745909377       -0.0569083566
 H         -1.8184943484       -5.0117813220        1.5001873534
 H         -2.3410232978       -3.6451100655       -1.2362459644
