  62
        -98.93299601
 C         -2.1213484906       -0.3424698300        0.3991841203
 C         -3.1879745006       -0.5863170799       -0.4990668697
 C         -4.1454630506        0.5184808900       -0.6932023596
 C         -3.9585469606        1.6838530000       -0.0527184496
 C         -4.7828106307        2.9441689700       -0.1362670295
 C         -6.3108784707        2.7928365999       -0.1097938695
 C         -6.8349618706        1.6105279299        0.7184469505
 H         -6.0305956006        1.1936473999        1.3270275604
 H         -7.6061412406        1.9712366898        1.4017128405
 C         -7.4506547406        0.5045964599       -0.1423945696
 H         -8.1135693106       -0.0983318701        0.4828108704
 H         -8.0645563406        0.9668664499       -0.9184616596
 C         -6.4530127806       -0.4505908200       -0.7963315497
 H         -5.9954979906       -1.0870519701       -0.0342390197
 H         -7.0080284006       -1.1069387800       -1.4707832497
 C         -5.3162600806        0.2193104901       -1.5853450696
 H         -5.6653922606        1.1100618201       -2.1014490296
 H         -4.9552613806       -0.4965546099       -2.3283793397
 H         -6.7122039207        3.7245938699        0.2922800706
 H         -6.6852907907        2.7043780500       -1.1287093195
 H         -4.4594213607        3.5499133199        0.7136717006
 H         -4.4916346507        3.4817337101       -1.0433421194
 O         -2.9045306506        1.8855615400        0.7893371405
 C         -1.9809679606        0.8892649900        1.0440461704
 O         -1.0957441306        1.2148661900        1.8628120904
 O         -3.3574948005       -1.6641914899       -1.1264996598
 C         -1.0603747105       -1.3789434399        0.7357707402
 C         -0.0050532605       -1.4527700799       -0.3424793498
 C         -0.2941083105       -1.9306200298       -1.6165862098
 C          0.6943961995       -1.9857609297       -2.5816451398
 C          1.9831978194       -1.5705161497       -2.2980551198
 C          2.2844272794       -1.0975882197       -1.0258474298
 C          1.2899583294       -1.0415150698       -0.0593947498
 H          1.5293291194       -0.6525033299        0.9193095403
 N          3.6001467194       -0.7197799297       -0.7045595198
 S          3.8662328894        0.5429659002        0.3827151303
 O          3.6404023194        0.0590096201        1.7212863603
 O          3.1220320694        1.7157471002       -0.0204323196
 C          5.6135834394        0.7969211703        0.1306106303
 C          6.0510414193        1.8722792103       -0.6185740996
 C          7.4120892393        2.0354389604       -0.8259905196
 C          8.3068485794        1.1237766304       -0.2866107697
 C          7.8526900494        0.0495332503        0.4644459303
 C          6.4938868894       -0.1180863097        0.6774328003
 H          6.0948220794       -0.9308083198        1.2614355202
 H          8.5514358094       -0.6558141097        0.8844797202
 H          9.3650585894        1.2526868204       -0.4502708197
 H          7.7680961193        2.8714989204       -1.4060950696
 H          5.3185305393        2.5584729604       -1.0125864096
 H          4.1825528994       -0.6171601397       -1.5251139498
 H          2.7528271994       -1.6142709096       -3.0538349798
 H          0.4572871395       -2.3525450296       -3.5689632698
 H         -1.3026080305       -2.2371680498       -1.8460431598
 H         -0.5704633005       -1.0100368100        1.6479416003
 C         -1.6379994405       -2.7511717000        1.0263810002
 C         -0.8207397805       -3.7229995300        1.8205680101
 C         -2.0383730105       -3.0944555001        2.4278802701
 H         -2.9159444905       -3.7052260001        2.5780725301
 H         -1.8972756405       -2.3383570201        3.1872927502
 H         -0.8601144604       -4.7679210500        1.5543004700
 H          0.1468167595       -3.3922925000        2.1686141001
 H         -2.2504557005       -3.1406444600        0.2244606701
