  62
        -98.94126408
 C         -1.3466707194       -1.4956792552       -0.1449252736
 C         -2.4773624382       -1.0988801985        0.6002757255
 C         -3.1464121759        0.1446906550        0.1778488329
 C         -2.6327398732        0.8456494982       -0.8492598510
 C         -3.1341876896        2.1305365145       -1.4588287331
 C         -3.5485140752        3.2385257746       -0.4785654473
 C         -5.0576258960        3.4871222115       -0.4442957331
 H         -5.2347912961        4.5057061849       -0.0920710438
 H         -5.4420701934        3.4228600194       -1.4643375937
 C         -5.8526658178        2.5426484568        0.4554419867
 H         -6.9137809778        2.7350487951        0.2803653408
 H         -5.6466780548        2.7823909008        1.5009189849
 C         -5.5826047341        1.0519860291        0.2413879188
 H         -5.4905208619        0.8284074661       -0.8206950018
 H         -6.4496296435        0.4999034225        0.6102538912
 C         -4.3475442885        0.5363223961        0.9950708208
 H         -4.0338053481        1.2687184937        1.7454778271
 H         -4.6086884947       -0.3689658534        1.5525766487
 H         -3.0610490766        4.1622539026       -0.7952968550
 H         -3.1736840553        3.0080259714        0.5180539075
 H         -3.9661889375        1.8973866749       -2.1283368770
 H         -2.3134676591        2.4824738342       -2.0879293131
 O         -1.5307171678        0.4295336712       -1.5343778764
 C         -0.8533591870       -0.7253458501       -1.1954607363
 O          0.1510665562       -0.9597051610       -1.8959936792
 O         -2.9152953992       -1.7586958279        1.5839783003
 C         -0.5951117023       -2.7540667965        0.2471005374
 C          0.8492321044       -2.4248275576        0.5347174332
 C          1.9095843858       -3.2329493364        0.1431809035
 C          3.2149724036       -2.8611084900        0.4160325386
 C          3.4921013693       -1.6701333762        1.0617876791
 C          2.4374268207       -0.8610725837        1.4676345972
 C          1.1318537888       -1.2558456397        1.2298859458
 H          0.3253005121       -0.6145236119        1.5546402670
 N          2.6588686488        0.3765801743        2.1097573578
 S          2.1675257723        1.7478782622        1.2771138842
 O          2.5671363090        2.8581168096        2.1160927601
 O          0.7654208980        1.6588016362        0.9625067502
 C          3.1672709810        1.7392325745       -0.2006543448
 C          2.8128262741        0.9261965210       -1.2584261123
 C          3.6479257826        0.8749269739       -2.3649136917
 C          4.8116600992        1.6272002253       -2.3949932614
 C          5.1519975628        2.4391525438       -1.3231356420
 C          4.3263358453        2.4924462518       -0.2124370777
 H          4.5465526834        3.1104610500        0.6431348258
 H          6.0558666709        3.0262317210       -1.3487102461
 H          5.4550817263        1.5804857593       -3.2594358814
 H          3.3743650051        0.2413225895       -3.1933633925
 H          1.8995748851        0.3518696127       -1.2222039104
 H          3.6135762986        0.5070502058        2.4173177852
 H          4.5107021726       -1.3656044577        1.2497629296
 H          4.0277991649       -3.4985489687        0.1035653062
 H          1.7136725849       -4.1527971620       -0.3831872642
 H         -1.0660049869       -3.1013925416        1.1791850334
 C         -0.7662405576       -3.8217019941       -0.8145328278
 C         -0.7803563997       -5.2727993690       -0.4390136526
 C         -2.0485824436       -4.5954855672       -0.8603138998
 H         -2.4708876089       -4.8375857995       -1.8239753065
 H         -2.7871928243       -4.3709144151       -0.1046357425
 H         -0.3337308827       -5.9850886497       -1.1162647040
 H         -0.6634768612       -5.5206524099        0.6051222460
 H         -0.3184132140       -3.5391256919       -1.7608789654
