  62
        -98.94045322
 C          2.3026201105        0.7396940993        0.0677404991
 C          3.1290693607        0.2574490901        1.1171648893
 C          4.0765449307       -0.8090188801        0.7711056999
 C          4.1003068005       -1.2792367910       -0.4888407897
 C          5.0476615604       -2.3257093413       -0.9981189491
 C          6.3241968003       -1.6908541117       -1.5672737098
 C          6.9672829104       -0.6590119809       -0.6406139007
 H          7.8752440403       -0.3024563213       -1.1318486011
 H          6.2974262504        0.1984274791       -0.5426965412
 C          7.3163006707       -1.1903403399        0.7566504797
 H          7.3375008807       -2.2806192699        0.7437492905
 H          8.3199167707       -0.8496893797        1.0197076493
 C          6.3789935508       -0.7148458891        1.8683538895
 H          6.2814508108        0.3728234508        1.8250077187
 H          6.8374378910       -0.9639824984        2.8289577096
 C          4.9717505709       -1.3252467492        1.8622348802
 H          5.0433127409       -2.4138761793        1.8179691310
 H          4.4858574410       -1.0498686186        2.8027049301
 H          7.0396366903       -2.4870768618       -1.7806628693
 H          6.0748223901       -1.1967688924       -2.5092951001
 H          5.2984816206       -3.0057766307       -0.1863268287
 H          4.5477652403       -2.8868424019       -1.7894962086
 O          3.2804048703       -0.8128033317       -1.4630277799
 C          2.3663564403        0.2065703084       -1.2200325205
 O          1.6944871401        0.5157812476       -2.2230067906
 H         -0.1875363097        0.1196765384       -0.9611513700
 C         -0.6768258096        0.4551147091       -0.0580570002
 C         -0.0237135595        1.3512039297        0.7770433391
 C         -0.6760873593        1.7845571805        1.9251046089
 C         -1.9509124292        1.3351871707        2.2232402394
 C         -2.5992950993        0.4461004300        1.3849922602
 C         -1.9543879095        0.0037571092        0.2373477504
 N         -2.6094986796       -0.9022445915       -0.6223230788
 S         -4.0475956997       -0.3520266720       -1.3044295490
 O         -4.2214711299       -1.1239942429       -2.5151234084
 O         -4.0401629098        1.0854558379       -1.4524978201
 C         -5.2887655295       -0.8355382012       -0.1230311484
 C         -5.3938905794       -2.1743866510        0.2002255926
 C         -6.3570727292       -2.5674146504        1.1156562530
 C         -7.1959046391       -1.6212431900        1.6860748525
 C         -7.0806171893       -0.2817723303        1.3471700215
 C         -6.1180413795        0.1185432891        0.4332959810
 H         -5.9859944996        1.1487474589        0.1439295602
 H         -7.7341417492        0.4519214500        1.7909362010
 H         -7.9440752590       -1.9300593895        2.3989277028
 H         -6.4500664291       -3.6080866002        1.3814965838
 H         -4.7248813494       -2.8764955313       -0.2688593270
 H         -2.0046811597       -1.2497683020       -1.3541205187
 H         -3.5919238192        0.0923935401        1.6110980306
 H         -2.4454715391        1.6804895013        3.1180780292
 H         -0.1735533192        2.4726749510        2.5889600683
 C          1.3481293105        1.8659536595        0.4234242885
 H          1.7756413206        2.3126659902        1.3350793081
 C          1.3002541002        2.9601922687       -0.6360974323
 C          0.1135914500        3.2278290080       -1.5083289023
 C          0.4679162102        4.1884806489       -0.4153268331
 H          0.8808116301        5.1494760587       -0.6817721939
 H         -0.1713275597        4.2054493895        0.4544082870
 H          0.3019825799        3.5090230373       -2.5335431926
 H         -0.7689609899        2.6177264881       -1.3886396117
 H          2.2704071001        3.1107663185       -1.0997685526
 O          3.0781025108        0.7087972910        2.2921154390
