  62
        -98.94152219
 C          2.7976082688        0.7551976394       -0.2188763975
 C          2.2775029104       -0.2003461489       -1.1259067442
 C          2.6671571294       -1.5977672560       -0.8839235050
 C          3.5025313249       -1.8909020827        0.1278892019
 C          3.9419520396       -3.2734425529        0.5111363334
 C          3.0106048694       -3.8805869043        1.5692634894
 C          1.5246357114       -3.7684704814        1.2261150072
 H          0.9678592066       -4.2649866272        2.0241761719
 H          1.2254473121       -2.7169956307        1.2410617648
 C          1.1347889297       -4.3821319697       -0.1256303188
 H          0.2189836644       -4.9616525069        0.0075848514
 H          1.9124083935       -5.0712126742       -0.4585875313
 C          0.8542213396       -3.3589950235       -1.2280783717
 H          0.3711543787       -3.8813992292       -2.0586479920
 H          0.1462492474       -2.6113523134       -0.8574840208
 C          2.0857574991       -2.6406282550       -1.7962594932
 H          2.8434291402       -3.3763019670       -2.0743012777
 H          1.7739868943       -2.1092417801       -2.7000781108
 H          3.1809383022       -3.3660990374        2.5178413680
 H          3.2755536093       -4.9314295467        1.6997299728
 H          3.9594047201       -3.9023814144       -0.3766786621
 H          4.9509623007       -3.2106605208        0.9222376958
 O          4.0163702064       -0.9445685452        0.9539836934
 C          3.6554683427        0.3838627532        0.8220028562
 O          4.1695289341        1.1374267725        1.6730001849
 H          0.0391672074        1.3423886115       -1.1476780252
 C         -0.0541623558        1.8720886104       -0.2110696518
 C          1.0769261821        2.4185613445        0.3786422867
 C          0.9372487340        3.0715168630        1.5976565962
 C         -0.3005757450        3.1655382563        2.2106968177
 C         -1.4214715554        2.6002205783        1.6286060498
 C         -1.2888532899        1.9434246234        0.4134553775
 N         -2.4218246012        1.3181925676       -0.1698782887
 S         -2.8420569684       -0.1387939198        0.5858999665
 O         -2.8842313168        0.0791974586        2.0096078201
 O         -1.9804474706       -1.2074977145        0.1255571082
 C         -4.4935662525       -0.3657708561       -0.0436478842
 C         -4.7186967183       -1.2442262533       -1.0850584359
 C         -6.0043749057       -1.3709743366       -1.5881615924
 C         -7.0349201204       -0.6178775042       -1.0466778333
 C         -6.7922203301        0.2612252415       -0.0013845563
 C         -5.5097924774        0.3916530025        0.5061095276
 H         -5.2740786023        1.0567127390        1.3202120413
 H         -7.5964101268        0.8444356603        0.4175091496
 H         -8.0337909076       -0.7177097723       -1.4411535866
 H         -6.1958200947       -2.0545361272       -2.3997689160
 H         -3.8882054913       -1.8133709464       -1.4715525346
 H         -2.2387556867        1.0952896086       -1.1414363278
 H         -2.3834043150        2.6374155034        2.1122172469
 H         -0.3907737386        3.6745405260        3.1584613747
 H          1.8135306549        3.4848965129        2.0762890735
 C          2.4335403461        2.2338991319       -0.2588956021
 H          3.1746306619        2.7401047102        0.3737305681
 C          2.4954273803        2.8381958857       -1.6472453107
 C          2.6242784517        4.3244906583       -1.7836254874
 C          3.7817811424        3.4367071111       -2.1270722237
 H          4.0503547841        3.3132025334       -3.1654002022
 H          4.6256292550        3.4133772547       -1.4527038450
 H          2.0963547631        4.8149623590       -2.5868542435
 H          2.6843753641        4.9060253292       -0.8761050686
 H          1.8916917213        2.3141996967       -2.3757256236
 O          1.5249604135        0.0715202160       -2.1006316729
