  62
        -98.94516153
 C         -2.2636120874       -0.7475546937       -0.0115435802
 C         -3.2603906526       -0.6608895154        0.9931812540
 C         -4.1264024598        0.5235430420        0.9458279418
 C         -3.9065146119        1.4598417396        0.0048752433
 C         -4.7389183817        2.6935859739       -0.1877538752
 C         -5.8832316753        2.4428564758       -1.1800782175
 C         -6.6916919729        1.1794846910       -0.8845270388
 H         -7.4882222881        1.1219407747       -1.6294821947
 H         -6.0522527852        0.3057566188       -1.0295650070
 C         -7.3028804567        1.1315899351        0.5227994200
 H         -7.3216867300        2.1336685262        0.9526258582
 H         -8.3381250331        0.7933534922        0.4433467888
 C         -6.5960014152        0.1791943037        1.4889627746
 H         -6.4917701389       -0.8038701082        1.0231211981
 H         -7.2298412999        0.0578991858        2.3713229116
 C         -5.2136947593        0.6296401915        1.9780913770
 H         -5.2750963345        1.6471096921        2.3694332106
 H         -4.9166813790       -0.0352795956        2.7942920180
 H         -6.5443105781        3.3113498109       -1.1703341605
 H         -5.4577597112        2.3509291057       -2.1821437068
 H         -5.1400198475        3.0084458024        0.7736882048
 H         -4.0958031574        3.4837294019       -0.5792288118
 O         -2.9169506790        1.3622764242       -0.9185546136
 C         -2.0766479830        0.2585806345       -0.9594264128
 O         -1.2322371471        0.3013519283       -1.8755989345
 O         -3.4183993996       -1.5359128441        1.8854179731
 C         -1.3460363010       -1.9599495911       -0.0018457129
 C          0.0326438024       -1.4986020700        0.3996940614
 C          0.3150453420       -1.2990902972        1.7485404788
 C          1.5439479696       -0.8087419161        2.1469360893
 C          2.5137984298       -0.4964847522        1.2095344368
 C          2.2348419992       -0.6742802797       -0.1381442346
 C          1.0080001274       -1.1905235000       -0.5352069617
 H          0.8014900298       -1.3118358744       -1.5866718442
 N          3.2072567712       -0.3471082594       -1.0990452295
 S          3.9962988049        1.1280886500       -0.9581293254
 O          3.1830412240        2.1153750859       -0.2863296216
 O          4.4317788996        1.4541329659       -2.2989370015
 C          5.4278601983        0.7399014300        0.0300266101
 C          5.7079303096        1.4828859547        1.1600327631
 C          6.8326605104        1.1691630879        1.9074516298
 C          7.6538002705        0.1241156389        1.5130177971
 C          7.3603454464       -0.6107719916        0.3739037646
 C          6.2383855843       -0.3014686610       -0.3781250750
 H          5.9768405667       -0.8454722781       -1.2701792669
 H          8.0011575419       -1.4228398989        0.0703800967
 H          8.5275181150       -0.1188167509        2.0968658059
 H          7.0621742362        1.7401557031        2.7927689334
 H          5.0372967786        2.2828315427        1.4314715060
 H          2.8917178712       -0.4877901103       -2.0484210425
 H          3.4697120613       -0.1008714372        1.5114580242
 H          1.7499793314       -0.6634485097        3.1965186584
 H         -0.4504716956       -1.5206864527        2.4790942391
 H         -1.7336810221       -2.6094161868        0.7944770318
 C         -1.3859759448       -2.7182793341       -1.3116346571
 C         -0.8249643765       -4.1067563211       -1.3713468969
 C         -2.3059079566       -3.8927477715       -1.4492670458
 H         -2.8020001967       -4.0491381394       -2.3955133380
 H         -2.9072740293       -4.1591449182       -0.5925037175
 H         -0.3020204154       -4.4140702356       -2.2640258869
 H         -0.4191652455       -4.5172231570       -0.4592869019
 H         -1.2652663811       -2.0831882251       -2.1809410667
