  62
        -98.93536633
 C         -2.3120493597       -1.1346481772       -0.5078494817
 C         -3.6196831866       -1.0344028459        0.0257578135
 C         -4.3913134507        0.1665977308       -0.3363113464
 C         -3.8195867839        1.0943599379       -1.1234302448
 C         -4.4005186679        2.4117362746       -1.5571569126
 C         -3.9764759337        3.5350113362       -0.5955443321
 C         -4.8890950248        3.7246863367        0.6154746938
 H         -4.4088870171        4.4536553119        1.2723753714
 H         -5.8373373339        4.1546632274        0.2860858518
 C         -5.1810363081        2.4555778787        1.4204544219
 H         -5.5041374772        2.7594243814        2.4181038900
 H         -4.2624600815        1.8779588616        1.5419619894
 C         -6.2731252020        1.5786041661        0.7899410807
 H         -7.0273965512        1.3438849629        1.5437904650
 H         -6.7809326689        2.1477131692        0.0115442109
 C         -5.7882896379        0.2384405004        0.2176688566
 H         -5.8123102680       -0.5222331774        1.0042307813
 H         -6.4875706938       -0.0920826471       -0.5575252890
 H         -2.9577649448        3.3228224992       -0.2594581303
 H         -3.9476192079        4.4768278321       -1.1473428936
 H         -5.4816725171        2.3493248031       -1.6367021498
 H         -3.9855899286        2.6245683478       -2.5445007298
 O         -2.5538586446        0.9651996865       -1.6066162444
 C         -1.7672337763       -0.1361162413       -1.3147550709
 O         -0.6360838460       -0.1027512925       -1.8367277078
 O         -4.1221121365       -1.9125015575        0.7775727391
 C         -1.4773755995       -2.3493237870       -0.1349796197
 C         -0.3598931737       -1.8827348870        0.7646632169
 C         -0.6226931454       -1.6628778507        2.1141429462
 C          0.3550148495       -1.1576939357        2.9502961713
 C          1.6126157015       -0.8533168717        2.4582355477
 C          1.8803620561       -1.0594277450        1.1120865652
 C          0.9022554412       -1.5842355790        0.2768563528
 H          1.1178218741       -1.7232304959       -0.7705774954
 N          3.1550190763       -0.7488522833        0.5951058116
 S          3.7964011387        0.7523158240        1.0344622228
 O          4.3701120377        0.6301000695        2.3523069905
 O          2.8048427031        1.7934643963        0.8761463274
 C          5.0953717297        0.9315459053       -0.1715717661
 C          6.3365623361        0.3854183757        0.0943370895
 C          7.3363352767        0.5012537101       -0.8582710062
 C          7.0793018419        1.1562231887       -2.0534895546
 C          5.8281819393        1.6989316141       -2.3059362246
 C          4.8230741170        1.5852562212       -1.3583079295
 H          3.8374442750        1.9970894005       -1.5097863750
 H          5.6307359786        2.2087706833       -3.2352483369
 H          7.8588491771        1.2468277793       -2.7933054880
 H          8.3107367432        0.0820994980       -0.6660942290
 H          6.4908328935       -0.1064152842        1.0403691777
 H          3.1701519119       -0.8452375920       -0.4121444070
 H          2.3793939106       -0.4402114614        3.0934888268
 H          0.1370215211       -0.9918138103        3.9948678566
 H         -1.6117079887       -1.8776877534        2.4949316692
 H         -2.1455835931       -2.9908914780        0.4547717456
 C         -1.0096200712       -3.1194478719       -1.3515486820
 C         -0.4609729040       -4.5028402660       -1.1744143764
 C         -1.8002894797       -4.3041350504       -1.8161080493
 H         -1.8948499422       -4.4745360460       -2.8780617432
 H         -2.6827761961       -4.5678878850       -1.2520313549
 H          0.3654689327       -4.8141401807       -1.7946393303
 H         -0.4326438691       -4.8999929853       -0.1710581051
 H         -0.5687094985       -2.4909798966       -2.1155723670
