  62
        -98.94793923
 C          1.2829013004        1.1662256284       -0.0018791110
 C          2.1840264305        0.7229575287        0.9933588290
 C          2.7699807599       -0.6073609317        0.7837981497
 C          2.3933676793       -1.3305407422       -0.2863323997
 C          2.9305961786       -2.6875476327       -0.6365700390
 C          4.1510971484       -2.5831374938       -1.5618563194
 C          5.2102613289       -1.5937713539       -1.0762374103
 H          6.0363419887       -1.6250920347       -1.7898020505
 H          4.7953870794       -0.5837697538       -1.1073108808
 C          5.7433544992       -1.8773282032        0.3350038197
 H          6.8310861992       -1.7814608337        0.3250125694
 H          5.5111293088       -2.9041128930        0.6200660004
 C          5.2231423299       -0.9242767823        1.4128051693
 H          5.3681390403        0.1095657074        1.0890894486
 H          5.8221344101       -1.0714640020        2.3154982292
 C          3.7514613199       -1.1022523215        1.8081946498
 H          3.5573946296       -2.1489516412        2.0535237605
 H          3.5720056804       -0.5042271108        2.7069174394
 H          4.5947665079       -3.5755417140       -1.6600181889
 H          3.8104862983       -2.2628788443       -2.5489974095
 H          3.1970071686       -3.2120284122        0.2792600213
 H          2.1445104182       -3.2483368727       -1.1456326684
 O          1.5015952892       -0.8837633824       -1.2068132198
 C          0.9301119398        0.3781986879       -1.0959137104
 O          0.1408459597        0.6672914376       -2.0134676804
 H         -0.7618253394        0.6663874903        1.4830041799
 C         -1.4168494893        1.3456470002        0.9563548496
 C         -0.8779848490        2.3749894095        0.1935380188
 C         -1.7468112588        3.2375517794       -0.4631805515
 C         -3.1162537489        3.0605060201       -0.3692821510
 C         -3.6466803491        2.0230935008        0.3746277098
 C         -2.7867462093        1.1607518608        1.0451235501
 N         -3.2913044195        0.1052610916        1.8308863509
 S         -2.7453750703       -1.4474670589        1.5347673217
 O         -3.6702917605       -2.2963914780        2.2560828425
 O         -1.3563120902       -1.5705571992        1.8966636614
 C         -2.9623538309       -1.6783780499       -0.2187795080
 C         -1.8572010211       -1.7354836509       -1.0395781883
 C         -2.0406136515       -1.8532789117       -2.4078420782
 C         -3.3238791417       -1.9117789215       -2.9271713678
 C         -4.4275059214       -1.8641397905       -2.0878791375
 C         -4.2485283510       -1.7427113297       -0.7202058277
 H         -5.0806560308       -1.7142407589       -0.0353765975
 H         -5.4236988516       -1.9156925103       -2.4968851972
 H         -3.4632311520       -1.9965611321       -3.9933543777
 H         -1.1772410117       -1.8766518225       -3.0529922084
 H         -0.8750934010       -1.6797257110       -0.5986948386
 H         -4.2991230195        0.1029211320        1.9069172912
 H         -4.7145634692        1.8819689613        0.4436897902
 H         -3.7787622587        3.7359411700       -0.8885123213
 H         -1.3510117986        4.0488502189       -1.0515770821
 C          0.6234726010        2.5236838088        0.1452222683
 H          0.9583335715        2.9079209093        1.1210160680
 C          1.1039851511        3.4657356379       -0.9397823324
 C          1.2103871418        4.9372880780       -0.6759562934
 C          2.4510684515        4.1055940274       -0.7935322832
 H          3.0685940913        4.2164619966       -1.6722363034
 H          3.0079957716        3.8845250578        0.1056221668
 H          0.9310647823        5.2915399288        0.3048176765
 H          0.9787528319        5.6230682876       -1.4769320938
 H          0.8096379807        3.1403063474       -1.9312314521
 O          2.4828828211        1.4080101992        2.0101139985
