  62
        -98.94638110
 C          1.3906122196        1.4555913494       -0.2863419106
 C          2.6142490698        1.3979397595        0.4289336791
 C          3.6411366797        0.4908029296       -0.0963188712
 C          3.3815248195       -0.2157724704       -1.2113196711
 C          4.3099575694       -1.2226268904       -1.8250171213
 C          4.0401618896       -2.6301555704       -1.2753953812
 C          3.9689618800       -2.6955286604        0.2504947588
 H          3.0866717801       -2.1458916504        0.5884593490
 H          3.8119420702       -3.7418418304        0.5224529989
 C          5.2140139102       -2.1588868503        0.9710239885
 H          5.4816436304       -2.8547024102        1.7689590284
 H          6.0549797200       -2.1216344802        0.2775799083
 C          5.0298161102       -0.7858077003        1.6201211585
 H          4.1294812804       -0.7927844503        2.2400859987
 H          5.8816905004       -0.6055035102        2.2812100383
 C          4.9399735199        0.4021071097        0.6541323785
 H          5.7843980697        0.3787311198       -0.0377282017
 H          5.0053834800        1.3186358797        1.2478594785
 H          3.0847136596       -2.9814317605       -1.6733820209
 H          4.8254558596       -3.2982356103       -1.6344468014
 H          4.1486308291       -1.2273760004       -2.9044093313
 H          5.3390826394       -0.9324127803       -1.6216313216
 O          2.2112508193       -0.1186935905       -1.8873327608
 C          1.1786717493        0.6943254894       -1.4371852605
 O          0.1630399292        0.6470928693       -2.1572394503
 O          2.8378708400        2.0861146296        1.4623252390
 C          0.3195541097        2.3652726694        0.2814751697
 C         -0.6408593501        1.6396395593        1.1989628699
 C         -1.3130232799        2.3419129393        2.1951939601
 C         -2.2034305996        1.6982251392        3.0335195403
 C         -2.4514638395        0.3443476192        2.8906832604
 C         -1.7849230097       -0.3679132208        1.9013308803
 C         -0.8855910300        0.2825315093        1.0664089300
 H         -0.3681818901       -0.2918461607        0.3144561799
 N         -1.9986880997       -1.7459522908        1.7411653503
 S         -2.1578056200       -2.3856099608        0.1997830404
 O         -2.7861875999       -3.6721626409        0.4188520506
 O         -0.8795444602       -2.4173785207       -0.4626295799
 C         -3.3099182203       -1.2886429809       -0.6048937193
 C         -4.6437993402       -1.4284204810       -0.2685690990
 C         -5.5698181204       -0.5516438811       -0.8071384888
 C         -5.1470050007        0.4533350689       -1.6646768589
 C         -3.8069701308        0.5767071990       -1.9938613992
 C         -2.8725379506       -0.3000060809       -1.4614024995
 H         -1.8249604807       -0.2185641208       -1.7073779897
 H         -3.4723706410        1.3531499090       -2.6636778793
 H         -5.8648883209        1.1422591488       -2.0811461887
 H         -6.6135125203       -0.6507578512       -0.5560575485
 H         -4.9298054300       -2.2305799410        0.3924468011
 H         -2.6917848095       -2.1348223708        2.3644156605
 H         -3.1446241193       -0.1617022309        3.5448874506
 H         -2.7121448994        2.2542196292        3.8058373705
 H         -1.1230408599        3.3967945593        2.3178255700
 H          0.8628562498        3.0999786294        0.8934751395
 C         -0.4670997707        3.1136006093       -0.7792753701
 C         -0.9384328107        4.5122569292       -0.5229526400
 C          0.1723605290        4.2626570193       -1.4974129403
 H         -0.0194325012        4.3786525793       -2.5532678403
 H          1.1771746591        4.5331672594       -1.2062554906
 H         -1.9031289408        4.8063551492       -0.9062736298
 H         -0.6799030805        4.9707174893        0.4191740599
 H         -1.1088027508        2.4661416092       -1.3626367900
