  62
        -98.94416411
 C         -2.2507075752       -0.8657562416        0.4021037861
 C         -2.4501283757       -0.0024084328       -0.7026396953
 C         -3.2952065195        1.1710295017       -0.4460176870
 C         -3.7820374082        1.3895637177        0.7889795029
 C         -4.6385145264        2.5527940351        1.2105263284
 C         -6.1338330567        2.3642460055        0.9198594334
 C         -6.5278078569        2.4630432293       -0.5544405172
 H         -7.6168853200        2.5311225605       -0.5904007739
 H         -6.1300202398        3.3874533023       -0.9742711131
 C         -6.0794054656        1.2708693432       -1.4113062206
 H         -5.8234346587        0.4308869434       -0.7613640205
 H         -6.9084543013        0.9447736427       -2.0433198773
 C         -4.8947549846        1.5623031422       -2.3325745633
 H         -4.6382812023        0.6415993448       -2.8625433470
 H         -5.1832019900        2.3093573730       -3.0752524312
 C         -3.6366869521        2.0562427065       -1.6063347874
 H         -2.7988704108        2.0206417914       -2.3069532649
 H         -3.7731000351        3.0852728642       -1.2745173325
 H         -6.4473588462        1.3960452022        1.3171021367
 H         -6.6721427861        3.1390818924        1.4705883280
 H         -4.5085406899        2.6596240962        2.2897552343
 H         -4.2844630353        3.4634103194        0.7263518436
 O         -3.5224375223        0.5611029822        1.8369537935
 C         -2.7693555613       -0.5901290763        1.6661148380
 O         -2.6232599958       -1.2677255917        2.7053163038
 O         -1.9492308779       -0.1965707799       -1.8395413209
 C         -1.4221691333       -2.1256959096        0.2337951299
 C         -0.0186996493       -1.7791775949       -0.2035140539
 C          0.6653834055       -2.4758840107       -1.1907967792
 C          1.9592623073       -2.1200240537       -1.5311235188
 C          2.5982365973       -1.0701515276       -0.8982888322
 C          1.9290111723       -0.3754268774        0.1010419072
 C          0.6356016608       -0.7378511623        0.4433512366
 H          0.1169096397       -0.1971011526        1.2267305633
 N          2.5664975659        0.6995928849        0.7463682469
 S          4.0945345895        0.4374235470        1.3927841257
 O          4.2756402206       -0.9430429091        1.7784961596
 O          4.2346963299        1.4222252359        2.4434578086
 C          5.2000078678        0.8509303148        0.0600162601
 C          6.1443002515       -0.0641237500       -0.3623882765
 C          7.0008611307        0.2858474645       -1.3947552789
 C          6.8990141646        1.5377094143       -1.9818403444
 C          5.9463495891        2.4459768057       -1.5442192080
 C          5.0877735692        2.1029820591       -0.5121222529
 H          4.3360113696        2.7794863065       -0.1408336183
 H          5.8696398848        3.4184122820       -2.0034055613
 H          7.5658405644        1.8076217796       -2.7854489936
 H          7.7421761693       -0.4184546361       -1.7364456214
 H          6.1824766713       -1.0275519040        0.1204833018
 H          1.9780755481        1.1747886590        1.4153815787
 H          3.6026745760       -0.7856940773       -1.1658819133
 H          2.4760370860       -2.6665072155       -2.3051357329
 H          0.1843305217       -3.2963050578       -1.6972876045
 H         -1.3585626072       -2.5844262228        1.2321969810
 C         -2.1265731851       -3.0877580737       -0.7007488757
 C         -1.9645479212       -4.5672523437       -0.5291890288
 C         -3.2608899921       -3.9084142738       -0.1675108050
 H         -4.1204901278       -4.0742472749       -0.7994001082
 H         -3.5047001202       -3.7945561286        0.8792369778
 H         -1.9374456073       -5.1893236184       -1.4110967198
 H         -1.3311093048       -4.9116805350        0.2744271181
 H         -2.2233649213       -2.6935720364       -1.7057011073
