  62
        -98.93831361
 C         -1.8180151005       -0.7407199099        0.2749234196
 C         -2.3238117406        0.5636338102        0.0718802104
 C         -3.7629729905        0.7517415199        0.3346951908
 C         -4.4960865604       -0.2967876203        0.7476744704
 C         -5.9769367203       -0.3323872105        1.0065054907
 C         -6.7348752506       -0.7991906200       -0.2479890693
 C         -7.1020217608        0.3123880405       -1.2303339387
 H         -7.5115112910       -0.1654132891       -2.1233566289
 H         -7.8930387308        0.9277196803       -0.7965057382
 C         -5.9469596310        1.2261850508       -1.6484790985
 H         -6.2251664512        1.7086323512       -2.5876313682
 H         -5.0554011910        0.6278768609       -1.8453426090
 C         -5.6287086708        2.3112447603       -0.6090049081
 H         -6.4401320907        2.3567938699        0.1172778421
 H         -5.5993431110        3.2855282705       -1.1014003576
 C         -4.2885684307        2.1453444300        0.1237002416
 H         -3.4998999108        2.6544150903       -0.4395875584
 H         -4.3488211905        2.6462267095        1.0957735818
 H         -6.1184016406       -1.5475385297       -0.7525736998
 H         -7.6577710705       -1.2926533702        0.0633450706
 H         -6.1371059801       -1.0637798209        1.8013377304
 H         -6.3331226803        0.6363095893        1.3439814913
 O         -3.9638194503       -1.5352348604        0.9404233397
 C         -2.6251571203       -1.7910973002        0.7098817693
 O         -2.2770203702       -2.9685759603        0.9304693486
 O         -1.6131224307        1.5279849804       -0.3165086993
 C         -0.3538113405       -1.0375312797        0.0036982691
 C          0.5245066496       -0.1115006600        0.8078168494
 C          0.2737493899        0.0300902993        2.1710617795
 C          1.0381843100        0.8783760389        2.9467101398
 C          2.0808623299        1.5936382893        2.3835923199
 C          2.3475212696        1.4511138800        1.0279965798
 C          1.5780756695        0.5948020103        0.2497574595
 H          1.7979182592        0.5177991808       -0.8016489006
 N          3.3948630994        2.1669314703        0.4327173199
 S          4.3040719492        1.4921381710       -0.7893383806
 O          5.5502566391        2.2281580310       -0.7570467906
 O          3.5892657689        1.5286171315       -2.0400238005
 C          4.5879094194       -0.2003650693       -0.2976900215
 C          5.0561387397       -0.4538540399        0.9766900482
 C          5.2815189898       -1.7659697200        1.3592343275
 C          5.0420475897       -2.7981780396        0.4648162871
 C          4.5812266994       -2.5271104390       -0.8137271427
 C          4.3503689993       -1.2162193688       -1.1997559820
 H          3.9859931990       -0.9617151784       -2.1815817318
 H          4.3981518493       -3.3296516187       -1.5104842630
 H          5.2167016498       -3.8192588097        0.7653370565
 H          5.6421624801       -1.9801363505        2.3523830474
 H          5.2423710898        0.3671995898        1.6493580486
 H          3.9515436895        2.7232571400        1.0637532200
 H          2.6740030200        2.2654464790        2.9850777401
 H          0.8234533303        0.9844436884        3.9993924799
 H         -0.5429151599       -0.5269614210        2.6102730694
 H         -0.1822433804       -2.0649157799        0.3572822886
 C         -0.0912328208       -0.9872769190       -1.4868926209
 C          0.9732893291       -1.8454628586       -2.0980406516
 C         -0.4720460609       -2.1695988086       -2.3247595314
 H         -0.8950592312       -1.9950130381       -3.3027689312
 H         -0.8938389708       -3.0220908888       -1.8121056217
 H          1.5418634389       -1.4433153381       -2.9231458315
 H          1.5392362393       -2.4842868489       -1.4372166020
 H         -0.2582204910       -0.0019089488       -1.9080038704
