  62
        -98.93177166
 C          1.9614867557        1.1847637462       -0.3422700892
 C          2.9002087753        0.7053415805        0.6039617794
 C          3.4941672367       -0.6205767250        0.3613442175
 C          3.0849560577       -1.3262505378       -0.7077126000
 C          3.5297817941       -2.6912042269       -1.1708261740
 C          3.7069923726       -3.7681916874       -0.0896351151
 C          5.1691691364       -4.1327177704        0.1755363406
 H          5.2071182419       -5.1442105744        0.5858646306
 H          5.7007693955       -4.1477408290       -0.7781577231
 C          5.9037729848       -3.2120345184        1.1482763781
 H          5.5295977866       -3.3825758441        2.1599216351
 H          6.9587296520       -3.4957762400        1.1389397112
 C          5.7951482944       -1.7177246141        0.8397000287
 H          6.6419912531       -1.2157609348        1.3122891338
 H          5.8787376823       -1.5426220579       -0.2323847966
 C          4.5091121197       -1.0711602874        1.3763828930
 H          4.7576869772       -0.1647111927        1.9370891978
 H          4.0222703861       -1.7413705490        2.0904592730
 H          3.2190183493       -3.4513834662        0.8307706215
 H          3.1928985010       -4.6676407401       -0.4326479768
 H          4.4580793557       -2.5773392611       -1.7369962161
 H          2.7661071681       -3.0060448435       -1.8860470032
 O          2.1665754997       -0.8357033664       -1.5875020385
 C          1.5849920760        0.4150876626       -1.4434574558
 O          0.7841624609        0.6951603249       -2.3570075196
 O          3.2447960622        1.3749879689        1.6167279047
 C          1.3759490852        2.5565802821       -0.0707594173
 C          0.0967332685        2.4884657865        0.7327681645
 C         -0.1798824369        3.4617719770        1.6867851997
 C         -1.3636451885        3.4312387690        2.4007423669
 C         -2.2909032505        2.4299652129        2.1795690818
 C         -2.0178899612        1.4419900160        1.2386467708
 C         -0.8326329649        1.4816006291        0.5180609657
 H         -0.6431698607        0.7192606385       -0.2220618765
 N         -2.9217909435        0.3857828368        1.0483420754
 S         -2.9528436454       -0.4753061648       -0.4003688831
 O         -1.8491614446       -1.4024159911       -0.4113379398
 O         -3.0712742276        0.4306040208       -1.5201842471
 C         -4.4837112785       -1.3645207593       -0.1798680586
 C         -4.4779114937       -2.5326946174        0.5584952625
 C         -5.6732302980       -3.2045928814        0.7599598853
 C         -6.8486494611       -2.6997217138        0.2239465983
 C         -6.8390846693       -1.5277695055       -0.5173463880
 C         -5.6469386000       -0.8507760216       -0.7216120420
 H         -5.5882699937        0.0579564464       -1.2988796372
 H         -7.7533500839       -1.1394404019       -0.9362988001
 H         -7.7773363950       -3.2247289655        0.3822463649
 H         -5.6834398798       -4.1178223351        1.3327383109
 H         -3.5383516767       -2.8898214116        0.9470950696
 H         -3.8516044324        0.5898939604        1.3877873182
 H         -3.2146247996        2.4020137795        2.7366923628
 H         -1.5676454494        4.1942885046        3.1361832758
 H          0.5444755199        4.2403076277        1.8720232967
 H          2.1242881802        3.0739520325        0.5470031090
 C          1.1350699433        3.3809058310       -1.3214347854
 C          1.2422546548        4.8739054475       -1.2591495382
 C          2.2877665294        4.0767222141       -1.9783688103
 H          2.3199140443        4.1078702770       -3.0568415387
 H          3.2586086869        3.9734964787       -1.5156841973
 H          0.5507244579        5.4610218224       -1.8434753087
 H          1.5134854097        5.3217451198       -0.3155728502
 H          0.3776731580        2.9554650901       -1.9683529242
