  62
        -98.93361727
 C          1.6475320622        1.1069289820        0.0025028197
 C          2.1193719538       -0.1391096810       -0.4777424115
 C          3.5836350272       -0.2734517666       -0.5927338932
 C          4.3731082445        0.7579116031       -0.2456209026
 C          5.8752995182        0.7456549571       -0.2341552412
 C          6.3845914590       -0.0035740477        1.0137985810
 C          7.1324661605       -1.3016872446        0.7089757505
 H          8.1334043841       -1.0580857907        0.3466305498
 H          7.2458063509       -1.8426315892        1.6508898773
 C          6.4747326540       -2.2259935197       -0.3203123147
 H          6.9655047323       -3.1978300693       -0.2340277428
 H          6.6829805961       -1.8615623513       -1.3274002134
 C          4.9604760205       -2.4250992207       -0.1742533087
 H          4.7330999840       -3.4712310079       -0.3895142776
 H          4.6439352740       -2.2372144819        0.8519889876
 C          4.1060183749       -1.5755865000       -1.1337901065
 H          4.6651714963       -1.3914543399       -2.0556277176
 H          3.2111451739       -2.1460472499       -1.4008491370
 H          7.0491336682        0.6478442820        1.5833354068
 H          5.5284311933       -0.2183631123        1.6567950804
 H          6.2082952881        1.7836038686       -0.2159114011
 H          6.2468653144        0.2759021499       -1.1420690415
 O          3.8826661474        1.9333740366        0.2267020079
 C          2.5203748551        2.1324472311        0.3756430447
 O          2.2155167944        3.2445040286        0.8494666726
 O          1.3727870891       -1.0997185110       -0.7980449379
 C          0.1658980913        1.3879151753        0.1889637518
 C         -0.5170207860        0.2055920854        0.8297740309
 C         -0.1441868680       -0.1613201472        2.1207699802
 C         -0.7366587843       -1.2391953784        2.7483240139
 C         -1.7331947466       -1.9595930886        2.1126080210
 C         -2.1128654320       -1.6009979520        0.8255637000
 C         -1.5052661203       -0.5253911163        0.1912289797
 H         -1.7842159162       -0.3021288413       -0.8241415856
 N         -3.1207276024       -2.3066483330        0.1544486667
 S         -4.1659037196       -1.5037211345       -0.8664498108
 O         -5.3620069465       -2.3197818027       -0.8705751860
 O         -3.5592122368       -1.2812789524       -2.1543524197
 C         -4.4986753158        0.0602234133       -0.0717269803
 C         -4.2886941049        1.2352664137       -0.7635812176
 C         -4.5411632039        2.4423432673       -0.1310555526
 C         -4.9956550865        2.4529138595        1.1782733449
 C         -5.2092252040        1.2636436203        1.8583100035
 C         -4.9607364589        0.0545888618        1.2295849931
 H         -5.1245625806       -0.8857475138        1.7299266836
 H         -5.5658446413        1.2758026541        2.8755798309
 H         -5.1852933620        3.3938415841        1.6702025222
 H         -4.3781283630        3.3683387935       -0.6595378864
 H         -3.9291660166        1.1813213944       -1.7790053538
 H         -3.5824328414       -3.0225286774        0.6947230719
 H         -2.2001480678       -2.8012118271        2.6011254248
 H         -0.4278775971       -1.5182210571        3.7445313368
 H          0.6313033974        0.4049508955        2.6191521695
 H          0.1260583846        2.2253235967        0.9052805734
 C         -0.5418853216        1.8641385845       -1.0704297663
 C          0.1808143970        2.6487263464       -2.1229162142
 C         -0.2843994197        1.2548704175       -2.4142892405
 H         -1.1206383252        1.1138083542       -3.0844177426
 H          0.4498498505        0.4668597420       -2.4734214857
 H         -0.3342487124        3.4737400210       -2.5914186081
 H          1.2392665373        2.8165187813       -1.9857920413
 H         -1.5635721259        2.1676862137       -0.8623112456
