  62
        -98.93836656
 C          1.7811566204        0.0344474574        0.1373208402
 C          2.8977870454        0.9069871893        0.1040837954
 C          4.1379515139        0.3302754241       -0.4398880014
 C          4.1508939355       -0.9292377434       -0.9089515009
 C          5.3290817594       -1.6381143922       -1.5200973899
 C          6.2773259077       -2.2725477834       -0.4934427022
 C          7.1371308773       -1.2844901166        0.2959115546
 H          7.9011148657       -1.8674948670        0.8141877211
 H          7.6513378993       -0.6176912772       -0.3969367304
 C          6.3623610191       -0.4565424786        1.3307014860
 H          5.3975084581       -0.9297909397        1.5271752747
 H          6.9118670703       -0.4469949803        2.2747944229
 C          6.1261510070        0.9995118322        0.9291922555
 H          7.0838250706        1.5201019060        0.8587167994
 H          5.5385550055        1.4810732133        1.7150534216
 C          5.3758084052        1.1749432564       -0.3974528854
 H          6.0305636803        0.9345734224       -1.2347595347
 H          5.0679893023        2.2201220980       -0.4810606926
 H          6.9433511137       -2.9459875336       -1.0378259809
 H          5.6877104489       -2.8771336230        0.1995803640
 H          4.9209330952       -2.4324966330       -2.1486379047
 H          5.8860812809       -0.9462405706       -2.1525388995
 O          3.0461746993       -1.7222412989       -0.8967351363
 C          1.8537229860       -1.2707553368       -0.3582177045
 O          0.9355223221       -2.1155433698       -0.3748140899
 O          2.8851021443        2.1020413141        0.4926413581
 C          0.4262581411        0.4318600916        0.6975418693
 C         -0.4455053425        1.0816567419       -0.3456354586
 C          0.0404882482        2.0684095505       -1.1969388578
 C         -0.7943289445        2.6616794828       -2.1263832393
 C         -2.1287083264        2.3038008058       -2.2073029185
 C         -2.6245435978        1.3204600782       -1.3597586854
 C         -1.7756701660        0.7037297895       -0.4516005127
 H         -2.1594889753       -0.0773830080        0.1860937785
 N         -3.9696197646        0.9313252748       -1.4108132341
 S         -4.7829661355        0.5793015077        0.0105112544
 O         -6.1791300562        0.7825452191       -0.3103310182
 O         -4.2646901490        1.3455076108        1.1188347211
 C         -4.4947533717       -1.1580111601        0.2644521958
 C         -4.7952529671       -2.0271192044       -0.7654954177
 C         -4.5869996157       -3.3837475977       -0.5779897338
 C         -4.0867352307       -3.8459367703        0.6299848501
 C         -3.7940741115       -2.9608946513        1.6558320714
 C         -4.0000953286       -1.6024618037        1.4742648719
 H         -3.7789451355       -0.8797669659        2.2444460079
 H         -3.4029001188       -3.3217930155        2.5936050746
 H         -3.9219782908       -4.9021639075        0.7733994939
 H         -4.8119197926       -4.0763813304       -1.3729663491
 H         -5.1842709222       -1.6304253018       -1.6883568816
 H         -4.5417086889        1.4526491388       -2.0589323504
 H         -2.7823337452        2.7808506876       -2.9218269141
 H         -0.4055756996        3.4240319979       -2.7847922785
 H          1.0725352822        2.3733581415       -1.1153543987
 H         -0.0577915836       -0.5175892416        0.9782572788
 C          0.5242714434        1.2716984348        1.9646719335
 C          0.2341579838        2.7380585634        2.0133033922
 C         -0.7193832861        1.7691358844        2.6417884692
 H         -0.7716630928        1.7220767295        3.7194411735
 H         -1.6684120465        1.6091201151        2.1493915322
 H          0.8551459760        3.3504177801        2.6491994429
 H         -0.0660562964        3.2288317973        1.1010164258
 H          1.3201773517        0.9214886454        2.6149958664
