  62
        -98.94012810
 C          1.1162286402        1.3905474580        0.3210946889
 C          1.4613358681        0.5447296182       -0.7576309439
 C          2.4626109657       -0.5033258011       -0.4813132925
 C          2.9495490878       -0.6518286151        0.7638114908
 C          3.9268277899       -1.6559368444        1.3387509918
 C          4.8252777784       -2.4867583081        0.4254998268
 C          5.8663455869       -1.6849678393       -0.3546213472
 H          6.6065644116       -1.2971650314        0.3497550316
 H          6.3816723429       -2.3668547831       -1.0347912842
 C          5.3267272409       -0.5007882102       -1.1533491406
 H          4.9114529992        0.2436350115       -0.4709472556
 H          6.1713009770       -0.0307142418       -1.6646097953
 C          4.2784980731       -0.8454873332       -2.2099249233
 H          4.6684326353       -1.6175026309       -2.8762480071
 H          4.1061605131        0.0543599030       -2.8066816325
 C          2.9153957760       -1.3083428051       -1.6653969166
 H          2.1684843770       -1.1533153897       -2.4492304420
 H          2.9266617002       -2.3703364903       -1.4323031676
 H          4.2263686994       -3.0884212529       -0.2518331635
 H          5.3646004456       -3.1843004803        1.0722450566
 H          3.3306577976       -2.3438368002        1.9485377143
 H          4.5538274110       -1.0916117070        2.0361461185
 O          2.5325720165        0.1422969984        1.7914105825
 C          1.6462994455        1.1826977719        1.5980860240
 O          1.4086757849        1.8467667375        2.6256216745
 O          0.9709368097        0.6304181885       -1.9164486879
 C          0.1638102669        2.5717623995        0.2014091612
 C         -1.2741512879        2.1179402790        0.2622941885
 C         -2.1261237387        2.5555135026        1.2690716470
 C         -3.4343290047        2.1065844150        1.3324008951
 C         -3.9144858355        1.2007650539        0.4028388284
 C         -3.0666039451        0.7543084737       -0.6012781034
 C         -1.7643514386        1.2218944791       -0.6767331341
 H         -1.1101656363        0.8654705434       -1.4586604565
 N         -3.5231863978       -0.2300832123       -1.5121193961
 S         -3.7517508231       -1.7256892262       -0.7859419555
 O         -3.7257838328       -2.6984025758       -1.8541545218
 O         -4.9580351813       -1.6771499499        0.0002808003
 C         -2.3373192075       -1.9232748507        0.2853248532
 C         -2.4249779011       -1.5048816045        1.5979747587
 C         -1.2966288982       -1.5705371627        2.3984764473
 C         -0.1085352154       -2.0581594604        1.8778563279
 C         -0.0387732047       -2.4845596952        0.5608949917
 C         -1.1601234667       -2.4065946908       -0.2486869554
 H         -1.1404705024       -2.7229618057       -1.2794318224
 H          0.8869489921       -2.8647009781        0.1603543493
 H          0.7688300462       -2.0993059235        2.5045812049
 H         -1.3421731536       -1.2352020435        3.4221584670
 H         -3.3686579283       -1.1403594021        1.9689159521
 H         -2.8921518551       -0.3438842942       -2.2945630490
 H         -4.9197090384        0.8143776050        0.4526383322
 H         -4.0841864842        2.4576147880        2.1194326322
 H         -1.7513870333        3.2394107013        2.0164550263
 H          0.3551773524        3.1950677514        1.0849569911
 C          0.4125435937        3.4102313882       -1.0380168576
 C         -0.0456361629        4.8360276804       -1.0547106491
 C          1.4176872585        4.5191760411       -0.9843938267
 H          2.0302852598        4.7018752084       -1.8545175279
 H          1.9308135356        4.6844638261       -0.0479465903
 H         -0.4414498357        5.2388707457       -1.9743440573
 H         -0.5235682214        5.2193561076       -0.1659071820
 H          0.3429467054        2.8479969927       -1.9596888663
