  62
        -98.94292974
 C         -1.9403185302       -0.6537200805        0.8037903039
 C         -2.8709155080       -1.1828363245       -0.1241333414
 C         -4.2387141204       -0.6469157895       -0.0379926683
 C         -4.5347467324        0.2788735561        0.8908797080
 C         -5.8679386020        0.9509121541        1.0420650698
 C         -5.9352250840        2.2424848013        0.2149117903
 C         -5.4742809452        2.0743213323       -1.2330375591
 H         -5.5942859345        3.0415160531       -1.7260739239
 H         -4.4070472771        1.8403030040       -1.2423073935
 C         -6.2362522995        1.0000264948       -2.0216462407
 H         -7.1753661546        0.7676809496       -1.5181337787
 H         -6.4869453076        1.4010655557       -3.0059777649
 C         -5.4518074171       -0.2926828768       -2.2533336823
 H         -4.4705904664       -0.0551409347       -2.6718052082
 H         -5.9897857713       -0.8877656595       -2.9960047319
 C         -5.2471211300       -1.1782843487       -1.0178476000
 H         -6.2063238644       -1.3534709888       -0.5269235569
 H         -4.8545484187       -2.1400575679       -1.3601130590
 H         -6.9630155859        2.6097790790        0.2315877644
 H         -5.2988350888        2.9920530761        0.6913507931
 H         -6.6528229758        0.2651898517        0.7289344082
 H         -6.0115952647        1.1968744859        2.0955860971
 O         -3.6221551963        0.7481398457        1.7798438442
 C         -2.3121468806        0.3036987692        1.7527921739
 O         -1.5819114874        0.8221853972        2.6224784786
 H          1.4151281037        0.8181710130        1.1691874976
 C          1.2551649461        0.5771587917        0.1285368442
 C          0.3121833243       -0.3765682296       -0.2282822804
 C          0.1120073188       -0.6467443991       -1.5788521364
 C          0.8381776052        0.0277140855       -2.5425801225
 C          1.7899086297        0.9659439562       -2.1822690437
 C          1.9981026452        1.2434732743       -0.8371619462
 N          2.9598614667        2.1916030625       -0.4379963445
 S          4.1384024581        1.7198594604        0.6536056603
 O          3.5503028529        1.4742682228        1.9447585616
 O          5.1404831088        2.7601333062        0.5886836215
 C          4.7841205443        0.2064102661       -0.0344916655
 C          4.1645457079       -0.9890803719        0.2696139941
 C          4.6146523652       -2.1502194488       -0.3382575067
 C          5.6726953149       -2.0966080700       -1.2324745033
 C          6.2890835585       -0.8887066951       -1.5228900458
 C          5.8379042706        0.2767074763       -0.9248357843
 H          6.2896517577        1.2362535060       -1.1182315202
 H          7.1149188503       -0.8513868547       -2.2149067866
 H          6.0192954686       -3.0027356711       -1.7037068391
 H          4.1330744308       -3.0879108693       -0.1119071004
 H          3.3476125370       -0.9920617861        0.9721745191
 H          3.3883094198        2.6842320030       -1.2092566990
 H          2.3608493356        1.4877577769       -2.9355228919
 H          0.6672440694       -0.1848816420       -3.5869277986
 H         -0.6351053295       -1.3707414336       -1.8641664431
 C         -0.4798403208       -1.0800136446        0.8483395998
 H         -0.1029256772       -0.7294841310        1.8191481104
 C         -0.2991146957       -2.5839165672        0.7821972796
 C          0.9216042908       -3.1991447438        1.3941408290
 C         -0.4174131004       -3.3864134527        2.0411440085
 H         -0.8875504828       -4.3569468588        1.9913483604
 H         -0.6205273194       -2.8504731859        2.9575581033
 H          1.6253814815       -2.5412255284        1.8824525780
 H          1.3745532307       -4.0450549529        0.9006784302
 H         -0.6892786400       -3.0280198930       -0.1232714479
 O         -2.6002797663       -2.0569958981       -0.9882087690
