  62
        -98.94313429
 C         -2.5869516368        0.0732466814       -0.3699092237
 C         -2.6884813069        1.0909791630        0.6145369997
 C         -2.1133359509        2.3938700782        0.2739731142
 C         -1.5330913829        2.5667901508       -0.9267323568
 C         -0.8532325272        3.8182690657       -1.4110965633
 C          0.5977439598        3.9410193108       -0.9245015556
 C          0.7583235311        4.3351174841        0.5448781429
 H          1.7985006285        4.6375680745        0.6817318346
 H          0.1342735044        5.2038992786        0.7589147096
 C          0.4405053801        3.2088975848        1.5385569273
 H          0.4738367638        2.2469801773        1.0209598381
 H          1.2123105555        3.1812746707        2.3120155611
 C         -0.9026887748        3.3485841654        2.2557281143
 H         -1.0451409125        2.4659742782        2.8845857975
 H         -0.8817521613        4.2277192017        2.9046982586
 C         -2.1156178900        3.4635351141        1.3244984305
 H         -3.0197902084        3.3342961911        1.9250365836
 H         -2.1416878389        4.4488781685        0.8594136706
 H          1.1019469545        2.9865594885       -1.0997170366
 H          1.0872387036        4.6992311225       -1.5407570001
 H         -0.8508476565        3.7700688898       -2.5022355675
 H         -1.4225624889        4.6953050644       -1.1011738201
 O         -1.5111327302        1.5912518357       -1.8699831840
 C         -1.9904697723        0.3141482464       -1.6081735745
 O         -1.8430986597       -0.4705736428       -2.5676838011
 O         -3.2383852780        0.9107604344        1.7353988303
 C         -3.0247995106       -1.3137301854        0.0716975166
 C         -1.8586208321       -1.9595056517        0.7865144143
 C         -2.0003045903       -2.5206144440        2.0496614185
 C         -0.8997565253       -3.0204152338        2.7240867928
 C          0.3643021911       -2.9348172416        2.1696220498
 C          0.5134051209       -2.3838103090        0.9013484915
 C         -0.5992901100       -1.9390398618        0.2051783927
 H         -0.4629835023       -1.5279985125       -0.7840189948
 N          1.7757868650       -2.2498448304        0.3035072911
 S          2.0536967520       -0.8442497458       -0.6022665364
 O          1.3118922162        0.2635383562       -0.0488663865
 O          1.8361836864       -1.1488081301       -1.9944958094
 C          3.7999135875       -0.6110352565       -0.3192894031
 C          4.2185012866        0.3477711172        0.5830952356
 C          5.5763888772        0.5000982092        0.8176227112
 C          6.4864812463       -0.3075889076        0.1527243320
 C          6.0510671405       -1.2655315834       -0.7513313221
 C          4.6953915985       -1.4212752052       -0.9923515709
 H          4.3097486994       -2.1431458914       -1.6933939020
 H          6.7615701900       -1.8896742864       -1.2687071775
 H          7.5421915597       -0.1877920323        0.3376294999
 H          5.9172197736        1.2473358874        1.5158526866
 H          3.4729022098        0.9550722658        1.0711868858
 H          2.5396609854       -2.4526259260        0.9337993580
 H          1.2291973801       -3.2849691532        2.7122608209
 H         -1.0231881150       -3.4523928593        3.7055327597
 H         -2.9751038714       -2.5380088786        2.5137479004
 H         -3.8213373687       -1.1538958098        0.8123149515
 C         -3.5586493372       -2.2149028513       -1.0205613742
 C         -4.4847086898       -3.3337177427       -0.6501134123
 C         -5.0078506403       -2.1419782722       -1.3928923880
 H         -5.2748106720       -2.2518476842       -2.4328987778
 H         -5.6248981763       -1.4362372522       -0.8561240490
 H         -4.3939817573       -4.2699803919       -1.1787360849
 H         -4.7540854336       -3.4386742665        0.3897675007
 H         -2.8491038591       -2.3900217293       -1.8186747284
