  62
        -98.94141121
 C         -1.8087264405       -1.0077486901        0.6854635002
 C         -2.0233696905        0.3817461998        0.8911881805
 C         -3.3928787705        0.8671481099        0.6974094206
 C         -4.3645333805       -0.0018193600        0.3657804905
 C         -5.8194331005        0.3264175301        0.1672650406
 C         -6.1561657206        0.8526319604       -1.2345559092
 C         -5.6757757705        2.2745452204       -1.5273513890
 H         -6.1634698206        2.5933485506       -2.4507481189
 H         -6.0143304705        2.9414530603       -0.7338071188
 C         -4.1560687305        2.4060038104       -1.7007258090
 H         -3.7224782506        1.4190076904       -1.8786091992
 H         -3.9418267006        3.0122106006       -2.5837968089
 C         -3.4360601105        3.0563078202       -0.5192003089
 H         -3.7661715404        4.0921954301       -0.4144951887
 H         -2.3643910305        3.0628161502       -0.7336604590
 C         -3.6460154704        2.3392555699        0.8208929309
 H         -2.9286574604        2.7401240897        1.5408922610
 H         -4.6544979104        2.5217062498        1.1916366510
 H         -5.7379688606        0.1667616705       -1.9749864194
 H         -7.2435121006        0.8304261904       -1.3381915192
 H         -6.3720583305       -0.6017246399        0.3284180105
 H         -6.1358532304        1.0535369199        0.9157012708
 O         -4.1244437806       -1.3260043900        0.1883398802
 C         -2.8482303806       -1.8598660200        0.3122314700
 O         -2.8032566306       -3.0825585200        0.0698459698
 H          1.8687076295       -0.2049252002        0.2110193601
 C          1.5378599494       -0.8610649200       -0.5792133400
 C          0.3711039794       -1.5933144800       -0.4180143201
 C         -0.0528388307       -2.4177415198       -1.4547629402
 C          0.6824787193       -2.5015173595       -2.6228019503
 C          1.8599292093       -1.7888208096       -2.7701927702
 C          2.2929176294       -0.9641184898       -1.7390270000
 N          3.4758674194       -0.2221783998       -1.8556634999
 S          4.4704094994       -0.0141184901       -0.5250661100
 O          5.7692672694        0.2833880700       -1.0900045400
 O          4.4096260595       -1.1480694603        0.3668513998
 C          3.8424306695        1.4445259098        0.2776361504
 C          3.6690665495        2.5859615799       -0.4795142594
 C          3.1977283596        3.7326930498        0.1384060909
 C          2.9119964397        3.7198249895        1.4952803909
 C          3.0956032397        2.5670976394        2.2425512606
 C          3.5662570696        1.4167275295        1.6299026604
 H          3.7169207396        0.4966346694        2.1731092302
 H          2.8693987197        2.5577796092        3.2968359807
 H          2.5417343997        4.6124679995        1.9742593211
 H          3.0518055396        4.6318492299       -0.4383776889
 H          3.9037774195        2.5579255401       -1.5305432794
 H          4.0023807293       -0.3862449196       -2.7011510700
 H          2.4397438292       -1.8691628794       -3.6772884202
 H          0.3425571892       -3.1408147094       -3.4238149104
 H         -0.9619120707       -2.9871131598       -1.3354868303
 C         -0.3873103905       -1.5014032102        0.8846842400
 H          0.1007704195       -0.7249958504        1.4899664001
 C         -0.2848584305       -2.8189854504        1.6300545297
 C          1.0465070595       -3.2256555005        2.1853714496
 C         -0.0578144905       -2.8119758007        3.1103691997
 H         -0.5401630504       -3.5703120408        3.7087679796
 H          0.0194825196       -1.8524310408        3.6005571299
 H          1.3208644394       -4.2689280805        2.1475846493
 H          1.8795580395       -2.5531606305        2.0390190297
 H         -0.9190548306       -3.5954739303        1.2230053496
 O         -1.1088238404        1.1774465297        1.2336009506
