  62
        -98.94740567
 C          2.5636797270        0.1425969029       -0.4014765001
 C          2.1681832012        0.7130847152        0.8326396399
 C          1.7174239754        2.1109595660        0.7769860614
 C          1.6873684977        2.7471174865       -0.4079558591
 C          1.2254377896        4.1605143638       -0.6155875475
 C         -0.2696881927        4.2245313239       -0.9530315964
 C         -1.1597082717        3.4400287276        0.0113587240
 H         -2.1955693139        3.6133806809       -0.2911273331
 H         -0.9736287431        2.3697340916       -0.1112321775
 C         -0.9876726987        3.8174885460        1.4892876096
 H         -0.5110183908        4.7957498660        1.5705127629
 H         -1.9771970276        3.8976460225        1.9439077543
 C         -0.2028033421        2.7938364637        2.3123597537
 H         -0.6017740294        1.7949412730        2.1202119113
 H         -0.3575899976        3.0161054020        3.3719968834
 C          1.3116022213        2.7612601087        2.0693967463
 H          1.7193063644        3.7729661140        2.1359953306
 H          1.7616009791        2.1548786540        2.8610878103
 H         -0.5747515066        5.2730885333       -0.9602807145
 H         -0.4173624136        3.8179227832       -1.9564375979
 H          1.4299978514        4.7371515719        0.2846186823
 H          1.7929182403        4.5851952729       -1.4459109659
 O          2.0628915665        2.1614405942       -1.5751908044
 C          2.4911993069        0.8451113431       -1.6026430379
 O          2.7882107268        0.4232264974       -2.7408861539
 H          0.4191189008       -1.0543380544       -0.9858513689
 C          0.6030763542       -1.9043258899       -0.3441073326
 C          1.9035170676       -2.2027705641        0.0399829171
 C          2.1166763457       -3.3115392536        0.8491934845
 C          1.0469566067       -4.0764181156        1.2821319665
 C         -0.2502042843       -3.7462233763        0.9350672112
 C         -0.4718579832       -2.6479664113        0.1120787930
 N         -1.7726170477       -2.2739404004       -0.2793017172
 S         -2.0844048276       -0.6089172779       -0.2913070521
 O         -1.6345209940       -0.0571409098       -1.5458610890
 O         -1.5606823473       -0.0040913072        0.9102144425
 C         -3.8671669084       -0.6087487403       -0.2552685803
 C         -4.5294980541       -0.2453211586        0.9013710725
 C         -5.9155793209       -0.2739972297        0.9167963128
 C         -6.6105481274       -0.6667282865       -0.2169221532
 C         -5.9312117079       -1.0276498697       -1.3714469260
 C         -4.5460913594       -0.9987915162       -1.3944835492
 H         -3.9749775230       -1.2601189590       -2.2700804542
 H         -6.4748220371       -1.3297712388       -2.2519628981
 H         -7.6887061796       -0.6890725499       -0.2022199197
 H         -6.4458999796        0.0099025975        1.8114136246
 H         -3.9452083491        0.0571295737        1.7556028660
 H         -2.4855400110       -2.7655808099        0.2442777253
 H         -1.0838765192       -4.3294523260        1.2959405321
 H          1.2255529222       -4.9322856837        1.9153450434
 H          3.1188941060       -3.5699259264        1.1499650256
 C          3.0126367169       -1.3067048385       -0.4578444533
 H          3.1791261121       -1.5309214498       -1.5226362151
 C          4.3170985014       -1.4901312770        0.2901027263
 C          5.3035963632       -2.5283929048       -0.1508568173
 C          5.5937258416       -1.0757566513       -0.3757006210
 H          6.3564274737       -0.6003364045        0.2223587577
 H          5.5214883026       -0.6865308990       -1.3811988828
 H          5.8733207696       -3.0511169059        0.6025674907
 H          5.0461699193       -3.1302125954       -1.0093797428
 H          4.2173508620       -1.2908468346        1.3508413757
 O          2.2078991218        0.0924204163        1.9277345883
