  62
        -98.94608351
 C          1.4165975368        0.8411165303       -0.0924781450
 C          2.5009273304        0.8500611684        0.8231865515
 C          3.4589094348       -0.2568036972        0.7218769081
 C          3.2500856198       -1.2194846964       -0.1943048728
 C          4.1653806938       -2.3829699375       -0.4416981136
 C          5.2091847452       -2.0510306243       -1.5173450335
 C          5.9287087020       -0.7216317306       -1.2891488118
 H          6.6606313333       -0.6061067163       -2.0914124012
 H          5.2089524285        0.0938190349       -1.3899446299
 C          6.6354823243       -0.6077433445        0.0687742824
 H          7.6310578167       -0.1876825266       -0.0887842734
 H          6.7673037347       -1.5998694604        0.5020032052
 C          5.9256548967        0.2952725174        1.0792468060
 H          6.6101186616        0.4774696176        1.9120288757
 H          5.7077579858        1.2614218665        0.6173408647
 C          4.6237963873       -0.2593039064        1.6715495606
 H          4.7963509477       -1.2632263203        2.0655212808
 H          4.3329124034        0.3901559667        2.5024993589
 H          4.7051032983       -2.0066594709       -2.4855423628
 H          5.9392446708       -2.8617832726       -1.5512842054
 H          4.6599041093       -2.6526013026        0.4897223091
 H          3.5617754701       -3.2279516499       -0.7783605564
 O          2.1925505161       -1.2108709709       -1.0410855838
 C          1.2491993862       -0.1908371646       -1.0174210874
 O          0.3486182694       -0.3350506538       -1.8663726537
 H         -0.8202988656       -0.3936067305        0.4721066996
 C         -1.2420987426        0.4116010467        1.0517460212
 C         -0.7060586262        1.6867948495        0.9645273897
 C         -1.2562643254        2.6965941779        1.7472888663
 C         -2.3158425448        2.4322970877        2.5949223737
 C         -2.8541173469        1.1603226585        2.6719907407
 C         -2.3094043010        0.1420756618        1.8980404682
 N         -2.8180884605       -1.1618876870        1.9762609616
 S         -2.9198700557       -2.1229788246        0.6097388344
 O         -3.8618004739       -3.1574796767        0.9855068720
 O         -1.6107873729       -2.5795536691        0.2191502942
 C         -3.6603932110       -1.0685090300       -0.6227875801
 C         -2.9070632026       -0.5219125777       -1.6404071258
 C         -3.5269563463        0.3369220271       -2.5367853876
 C         -4.8735201517        0.6331031677       -2.4015490821
 C         -5.6172027850        0.0693767180       -1.3752644391
 C         -5.0061770200       -0.7873312129       -0.4758527757
 H         -5.5503167413       -1.2581450661        0.3268647443
 H         -6.6661790284        0.2964917703       -1.2741386906
 H         -5.3457147280        1.3044435604       -3.1013995314
 H         -2.9444756038        0.7697972096       -3.3348874141
 H         -1.8578690186       -0.7601366792       -1.7250086515
 H         -3.6367306580       -1.2618258550        2.5584223027
 H         -3.6794007894        0.9500938451        3.3346617186
 H         -2.7289897408        3.2232605131        3.2017193339
 H         -0.8371766051        3.6900080344        1.7000869884
 C          0.4369983393        1.9933017036        0.0225389205
 H          1.0129690256        2.8183325037        0.4657783518
 C         -0.1246167651        2.4614938784       -1.3069461474
 C         -0.4831542694        3.9030985969       -1.4998205046
 C          0.7121564304        3.3281332745       -2.1975677937
 H          0.6680612695        3.1629816581       -3.2633557665
 H          1.6936632805        3.6067196576       -1.8417450329
 H         -1.3569933366        4.1397384727       -2.0865658657
 H         -0.3055623841        4.5829947865       -0.6809316586
 H         -0.7502409892        1.7199168120       -1.7855672398
 O          2.6617438107        1.7566252169        1.6852657803
