  62
        -98.94617193
 C         -1.5335786712       -1.4662871451       -0.0379410273
 C         -1.4981896779       -0.1009796243        0.3365333084
 C         -2.7884816591        0.4865739982        0.7254785821
 C         -3.8899926188       -0.2858925705        0.7309279144
 C         -5.2748772873        0.2015868509        1.0424072848
 C         -5.9993844663        0.6609296523       -0.2309410440
 C         -5.1768633857        1.6099273580       -1.1029029159
 H         -4.3125818104        1.0709555906       -1.4976788123
 H         -5.7993932646        1.8872635005       -1.9564699969
 C         -4.6984009480        2.8795125556       -0.3846042317
 H         -5.2863453119        3.0357812375        0.5205818178
 H         -4.8745795282        3.7375489096       -1.0368978442
 C         -3.2101393439        2.8854313876       -0.0298932211
 H         -2.6214118925        2.6372695224       -0.9162595475
 H         -2.9400900377        3.9003638497        0.2733495525
 C         -2.7929292953        1.9407978839        1.1039617366
 H         -1.7595878274        2.1781748775        1.3734957259
 H         -3.4266687256        2.1106726498        1.9765864442
 H         -6.9328539862        1.1467108752        0.0592915742
 H         -6.2470090939       -0.2215950515       -0.8255785093
 H         -5.8364234177       -0.6182314323        1.4935156903
 H         -5.2142519056        1.0223096564        1.7544989157
 O         -3.8752036766       -1.6037556414        0.4015368224
 C         -2.7021951993       -2.2244724858        0.0003630935
 O         -2.8277562686       -3.4338982680       -0.2814088398
 H          2.3030033973       -1.1149137206       -0.7817458160
 C          2.0568637376       -1.3857677090        0.2302777431
 C          0.8245440530       -1.9392724856        0.5361294874
 C          0.5686153618       -2.3107995245        1.8540849067
 C          1.5142980102       -2.1108453943        2.8402266178
 C          2.7301281768       -1.5219449960        2.5378816013
 C          2.9993748777       -1.1592723419        1.2243358924
 N          4.2244260266       -0.5722926656        0.8824632119
 S          4.3377791566        0.5155555141       -0.3782446021
 O          4.3188281268       -0.1854962527       -1.6386370703
 O          5.5533497327        1.2509262397       -0.0945414145
 C          2.9387021191        1.6150648938       -0.2626598206
 C          2.6966010172        2.2584825330        0.9335045630
 C          1.6339267314        3.1419960471        1.0143922210
 C          0.8385336521        3.3702452641       -0.0965124257
 C          1.0974224283        2.7199276439       -1.2910740912
 C          2.1562180008        1.8321339426       -1.3769539371
 H          2.3861644125        1.2976179683       -2.2857185380
 H          0.4710225505        2.8923423124       -2.1523373340
 H          0.0053705325        4.0523219663       -0.0299237781
 H          1.4236234490        3.6440865348        1.9454549793
 H          3.3334738597        2.0645568132        1.7816797573
 H          4.8149626394       -0.3177781674        1.6597606922
 H          3.4638458523       -1.3484903382        3.3101240504
 H          1.3001611049       -2.4029115797        3.8574207430
 H         -0.3899903751       -2.7511371002        2.0943885716
 C         -0.2540378635       -2.1410936006       -0.4990424971
 H         -0.4760200380       -3.2156664538       -0.5699219690
 C          0.1283133945       -1.6263473153       -1.8712738152
 C          0.9606207012       -2.4679352925       -2.7897688905
 C         -0.4911477896       -2.2434886348       -3.0871958205
 H         -0.7563140713       -1.6018908063       -3.9141944238
 H         -1.1789123984       -3.0622713260       -2.9323935733
 H          1.2608620184       -3.4433735460       -2.4376216276
 H          1.7000433273       -1.9816040374       -3.4087382757
 H          0.2852962152       -0.5531203357       -1.8812959790
 O         -0.4487695942        0.5898435254        0.3448198568
