  62
        -98.93961553
 C          0.9947440904        1.7715413752        0.4167034267
 C          1.4223093381        0.6200988968        1.1190261609
 C          2.7148198107        0.0382676666        0.7125839838
 C          3.3933033536        0.6072903363       -0.2990622309
 C          4.7072494533        0.1789884895       -0.8942424700
 C          4.4930978085       -0.7793008271       -2.0780297221
 C          4.4130931396       -2.2571446822       -1.7002933803
 H          4.1545280751       -2.8102512943       -2.6060609033
 H          5.3991284966       -2.5983614480       -1.3780242820
 C          3.3941847014       -2.5952972026       -0.6097162723
 H          2.4641894818       -2.0546274148       -0.7944101650
 H          3.1722251032       -3.6609183507       -0.6832280226
 C          3.8996217936       -2.2883618918        0.8073965732
 H          3.7852597311       -3.1737859786        1.4360356231
 H          4.9672689674       -2.0743918368        0.7722234702
 C          3.1657540100       -1.1481563576        1.5214348496
 H          3.7897077532       -0.7840379357        2.3453087248
 H          2.2480906275       -1.5347378753        1.9753844410
 H          3.5762848050       -0.4790081482       -2.5918402524
 H          5.3177678002       -0.6537893349       -2.7827175390
 H          5.1840008854        1.0886196563       -1.2657389532
 H          5.3487886481       -0.2648598167       -0.1390509587
 O          2.9188273878        1.6866928566       -0.9815152234
 C          1.7183077627        2.2924400426       -0.6555621865
 O          1.4250642287        3.2631647534       -1.3784348575
 O          0.7549647365        0.1001850666        2.0536398471
 C         -0.3228017753        2.4151641384        0.8159215170
 C         -1.3385217466        2.1383358717       -0.2644901164
 C         -1.8123840953        3.1035277687       -1.1428501544
 C         -2.7145844352        2.7591721475       -2.1345520785
 C         -3.1759739273        1.4612823993       -2.2545136841
 C         -2.7109158501        0.4880866987       -1.3762339715
 C         -1.7902880006        0.8305494427       -0.3998650866
 H         -1.4209029450        0.0732893551        0.2766069624
 N         -3.1502304878       -0.8409999002       -1.4708104894
 S         -3.4667021801       -1.7031540655       -0.0692645972
 O         -4.3792724055       -2.7461641623       -0.4913750083
 O         -3.9425644164       -0.8406332803        0.9871853197
 C         -1.9177050764       -2.4554814418        0.3730948009
 C         -1.4747166220       -2.3932983501        1.6782248199
 C         -0.2959579350       -3.0377167306        2.0171097386
 C          0.4135483262       -3.7293951929        1.0489570678
 C         -0.0437126793       -3.7801977372       -0.2593264234
 C         -1.2223578979       -3.1404301334       -0.6038981728
 H         -1.6128544150       -3.1611244325       -1.6078761990
 H          0.5145109921       -4.3163404288       -1.0099194333
 H          1.3309368734       -4.2298180838        1.3153914914
 H          0.0641302106       -2.9870073219        3.0320569316
 H         -2.0485870668       -1.8335635938        2.3995917876
 H         -3.8552096978       -1.0049228013       -2.1750148971
 H         -3.8885535724        1.1984710938       -3.0218370071
 H         -3.0706930922        3.5154036322       -2.8178577427
 H         -1.4643169539        4.1196615580       -1.0608772298
 H         -0.6462777868        1.8795372521        1.7199112246
 C         -0.1607796250        3.8815398729        1.1517846100
 C         -1.2293281090        4.5766040429        1.9397806323
 C          0.0963984536        4.2810669992        2.5725461756
 H          0.7720761664        5.1015687709        2.7623348890
 H          0.1462094780        3.4948749860        3.3117692910
 H         -1.4660395778        5.6014452575        1.6977239909
 H         -2.0816321444        3.9892347597        2.2475323564
 H          0.3497551376        4.4434245071        0.3791382442
