  62
        -98.94042427
 C         -1.6301205202       -1.3066368562        0.2102445108
 C         -1.7782478577       -0.1827113218        1.0637146719
 C         -2.4986372972        0.9676991968        0.5139237315
 C         -2.9087983545        0.9407638223       -0.7664196985
 C         -3.6182428688        2.0506935320       -1.4935458291
 C         -5.1352268081        2.0857055519       -1.2615652899
 C         -5.5709154017        2.5652960355        0.1235847348
 H         -5.0869636552        3.5171111158        0.3443395934
 H         -6.6460037581        2.7489364738        0.0748048316
 C         -5.2906728382        1.5673413285        1.2556806000
 H         -5.1028374631        0.5788378778        0.8303025034
 H         -6.1745023513        1.4806481957        1.8914590868
 C         -4.1175322729        1.9469122548        2.1591394588
 H         -3.9876963359        1.1560239417        2.9019867724
 H         -4.3481470275        2.8734913715        2.6891343709
 C         -2.7840566505        2.1262058067        1.4211578673
 H         -2.7865728273        3.0578303013        0.8551126739
 H         -1.9827508206        2.1707513847        2.1627808102
 H         -5.5389899701        1.0875246426       -1.4463554665
 H         -5.5618629217        2.7600615066       -2.0076770602
 H         -3.4329781361        1.8904087653       -2.5581705304
 H         -3.1799161283        3.0082702001       -1.2098164472
 O         -2.6950052973       -0.1279765919       -1.5755883281
 C         -2.0428066583       -1.2696628233       -1.1214092424
 O         -1.9117912569       -2.1450115565       -1.9992075024
 O         -1.3232071478       -0.1514062968        2.2386604783
 C         -0.8616914350       -2.4823967366        0.7921623891
 C          0.6112978781       -2.1733864747        0.7030983173
 C          1.4597817903       -2.3139189611        1.7939312330
 C          2.7878720437       -1.9307685121        1.7105958280
 C          3.2848944835       -1.3702623000        0.5471559760
 C          2.4438352336       -1.2328541283       -0.5486432344
 C          1.1284389854       -1.6558910202       -0.4769957822
 H          0.4828394823       -1.5355308317       -1.3362715863
 N          2.9256489125       -0.5482305644       -1.7045166741
 S          2.4363383394        1.0705924428       -1.6356937908
 O          1.0004407068        1.1868154420       -1.4853625742
 O          2.9928037052        1.7039068157       -2.8116868774
 C          3.2591076955        1.6419876285       -0.1685417658
 C          4.5874005559        2.0117051424       -0.2501642840
 C          5.2436364750        2.4026102552        0.9060188691
 C          4.5651198431        2.4099711551        2.1157588443
 C          3.2315271276        2.0351089338        2.1798131862
 C          2.5680112661        1.6451899969        1.0271721799
 H          1.5318783709        1.3410289700        1.0360031942
 H          2.7024642280        2.0364341532        3.1192871774
 H          5.0776410777        2.7092214107        3.0163609078
 H          6.2801119305        2.6956784918        0.8615026834
 H          5.0699562004        1.9889138572       -1.2133018417
 H          2.5585553982       -0.9395124921       -2.5632287466
 H          4.3057780088       -1.0322002029        0.4778557844
 H          3.4339357809       -2.0443981530        2.5669229617
 H          1.0639599933       -2.7008128567        2.7212184218
 H         -1.1270556435       -2.5013456808        1.8616265018
 C         -1.2326170076       -3.8333275685        0.2037148330
 C         -0.3331726864       -4.5987147014       -0.7155152445
 C         -0.5406224140       -5.0725644602        0.6898340196
 H         -1.1296861093       -5.9616370484        0.8547857127
 H          0.2772545725       -4.9458394710        1.3827013868
 H         -0.7936962130       -5.1416316602       -1.5265544453
 H          0.6206326527       -4.1648738436       -0.9734390433
 H         -2.2963157555       -3.9120492443        0.0065624372
