  62
        -98.93371148
 C          2.5758470099        0.3598791153        0.2132673868
 C          2.7003475671       -0.8092699634        1.0012806903
 C          2.4162596408       -2.0955343498        0.3445688831
 C          2.0157657905       -2.1037175353       -0.9402303473
 C          1.6682041725       -3.2486065537       -1.8683005540
 C          1.4047796624       -4.6473443796       -1.3169773915
 C          0.1414915941       -4.7701922018       -0.4660767518
 H         -0.7277156505       -4.6400548038       -1.1158039817
 H          0.1051207809       -5.7819998993       -0.0555830909
 C          0.0108581841       -3.7661142888        0.6771423583
 H         -0.9235304824       -3.9836177049        1.2029431160
 H         -0.0831923535       -2.7545110542        0.2729776026
 C          1.1373551963       -3.8017623057        1.7090586424
 H          1.2465733020       -4.8168154063        2.0965651182
 H          0.8410631395       -3.1557468886        2.5401431396
 C          2.5109858613       -3.3152533552        1.2155008958
 H          3.0988750355       -3.0228697950        2.0905984207
 H          3.0535709142       -4.1081557458        0.7064474964
 H          2.2707040546       -5.0060502151       -0.7683166150
 H          1.2835563296       -5.3040211424       -2.1829101208
 H          2.4895696598       -3.3082556044       -2.5913700354
 H          0.7883307633       -2.9117176841       -2.4263690289
 O          1.9057232028       -0.9519384942       -1.6622123520
 C          2.1266158071        0.2972202593       -1.1072419385
 O          1.9051519424        1.2401227821       -1.8900822618
 O          3.0261627262       -0.7806161664        2.2199852065
 C          2.7297900827        1.7024566107        0.9121189198
 C          1.4629774105        2.4828474467        0.6673866927
 C          1.4033888054        3.7316972736        0.0658063739
 C          0.1796127441        4.3108135365       -0.2282448174
 C         -1.0049407696        3.6554929422        0.0562322485
 C         -0.9519930451        2.4189589400        0.6815338706
 C          0.2686553621        1.8550367054        1.0008316196
 H          0.2979915449        0.8751452224        1.4643106021
 N         -2.1604778573        1.6934591574        0.9112587387
 S         -2.4328820666        0.6479507626       -0.3992919883
 O         -1.5271439757       -0.4808045638       -0.3376047671
 O         -2.4156880678        1.4341006662       -1.6058551169
 C         -4.0993514667        0.1096132519       -0.0595505826
 C         -5.1227077915        1.0199889585       -0.2412375816
 C         -6.4214274946        0.6347604684        0.0488159584
 C         -6.6736851504       -0.6474929705        0.5143219201
 C         -5.6362896914       -1.5499499022        0.6912824417
 C         -4.3341064486       -1.1695602838        0.4045567484
 H         -3.4961270987       -1.8382855498        0.5223552078
 H         -5.8345859333       -2.5466613267        1.0513129111
 H         -7.6854728011       -0.9459363176        0.7390467731
 H         -7.2308599481        1.3333890513       -0.0884853388
 H         -4.8770334923        2.0010384491       -0.6119927719
 H         -2.0697169069        1.1025195528        1.7299127792
 H         -1.9605750023        4.0726305846       -0.2152752872
 H          0.1507937318        5.2749713818       -0.7128659280
 H          2.3155378206        4.2348556122       -0.2112982608
 H          2.7711374301        1.4427922777        1.9837687301
 C          4.0053833178        2.4681401448        0.6069018561
 C          5.2470523651        1.7484441646        0.1743683450
 C          4.5324386308        2.6514352239       -0.7834598086
 H          4.9924559176        3.5968110408       -1.0322516070
 H          3.9725145004        2.2105421409       -1.5924437880
 H          6.1954707891        2.0689459024        0.5785072883
 H          5.1737751250        0.6816857990        0.0183473912
 H          4.1472485336        3.2994066783        1.2910643440
