  62
        -98.93540653
 C          2.3308734696        0.2683603139        0.5752325058
 C          3.4085007505        0.7443755316       -0.2122896022
 C          4.3866669600       -0.2726624396       -0.6287811758
 C          4.1943554885       -1.5656196562       -0.3153895996
 C          5.0878997630       -2.7145904730       -0.6967690254
 C          6.2822596331       -2.9158523809        0.2461581744
 C          7.3901444140       -1.8685151077        0.1262617146
 H          8.2517805453       -2.2497627483        0.6779129806
 H          7.6881107088       -1.7749216718       -0.9184688600
 C          7.0194180345       -0.4871142927        0.6836875501
 H          6.1461044066       -0.5793344830        1.3335977963
 H          7.8390285661       -0.1114916839        1.3004121679
 C          6.7329471830        0.5704737345       -0.3823598208
 H          6.4458944919        1.4967693222        0.1217474053
 H          7.6409901177        0.7673838724       -0.9564929071
 C          5.6101826060        0.1949630784       -1.3582055104
 H          5.9552146033       -0.5704377655       -2.0529189038
 H          5.3367510360        1.0871891608       -1.9267192876
 H          5.9143984121       -2.9418089787        1.2745358970
 H          6.7117916054       -3.8950685769        0.0223740325
 H          5.4469920233       -2.5771112458       -1.7171354030
 H          4.4679405446       -3.6132075423       -0.6648214202
 O          3.1142475013       -1.9910508768        0.3941296249
 C          2.1776147701       -1.0895296270        0.8680033323
 O          1.2599605129       -1.6100245934        1.5359650435
 O          3.5655570500        1.9416471029       -0.5602926407
 C          1.2416169179        1.1718498626        1.1310391528
 C          0.1158600202        1.2825738885        0.1351023291
 C          0.3481140963        1.7119856649       -1.1681368891
 C         -0.6920841074        1.7805795669       -2.0763238483
 C         -1.9784151219        1.4232583054       -1.7098067509
 C         -2.2179955257        0.9795951368       -0.4165023206
 C         -1.1712569666        0.9148504300        0.4958478356
 H         -1.3561972971        0.5524627105        1.4983192888
 N         -3.5239223174        0.6256743095       -0.0214133166
 S         -4.4093939338       -0.3806043778       -1.0521423203
 O         -3.6534976916       -1.5754067134       -1.3584304175
 O         -4.8469254705        0.3965328957       -2.1842211468
 C         -5.8033721649       -0.7657170211       -0.0121098302
 C         -5.8364018899       -1.9697392753        0.6647986887
 C         -6.9156015851       -2.2442592100        1.4904258163
 C         -7.9344531509       -1.3135051476        1.6270130699
 C         -7.8862610652       -0.1086838106        0.9412334440
 C         -6.8116942447        0.1713084562        0.1125193256
 H         -6.7355708531        1.0889098311       -0.4467561762
 H         -8.6816616146        0.6109407024        1.0489039223
 H         -8.7725226629       -1.5302228645        2.2704184669
 H         -6.9566156798       -3.1809958050        2.0226547514
 H         -5.0248840106       -2.6660780013        0.5239829607
 H         -3.5326719300        0.2395816086        0.9140020969
 H         -2.7921507446        1.4642415449       -2.4151594939
 H         -0.5009072114        2.1152074482       -3.0851564265
 H          1.3512294644        1.9856824337       -1.4588432169
 H          0.8504143020        0.6375897853        2.0115346548
 C          1.7625709640        2.5178327215        1.6156907952
 C          1.3983996207        3.8276254943        0.9905177883
 C          0.8328916557        3.4571688426        2.3262573560
 H          1.1877959336        3.9733573009        3.2053251520
 H         -0.2108627925        3.1825984101        2.3646461909
 H          2.1658959741        4.5847558492        0.9404135741
 H          0.7361589368        3.8240646612        0.1394110018
 H          2.7697681516        2.4420579537        2.0117114882
