  62
        -98.94342892
 C         -1.8895439633       -0.6749531059       -0.7440680938
 C         -2.2131256886       -0.0943557670        0.5062181500
 C         -3.6405551884       -0.0889128896        0.8515698655
 C         -4.5358877586       -0.6384033514        0.0108246418
 C         -6.0201243146       -0.7375855546        0.2383487001
 C         -6.7989692633        0.5255685578       -0.1533047578
 C         -6.6214273045        1.7168822642        0.7887903579
 H         -7.3836898438        2.4518415451        0.5224754268
 H         -6.8188172765        1.4004212908        1.8134739901
 C         -5.2418856341        2.3855291717        0.7105194000
 H         -4.7413488426        2.0808146103       -0.2114032119
 H         -5.3654651744        3.4698568408        0.6641331551
 C         -4.3230441467        2.0844883551        1.8946322102
 H         -3.3635955496        2.5765867008        1.7173212398
 H         -4.7530259379        2.5027055942        2.8074526399
 C         -4.0535827008        0.5911839718        2.1218713261
 H         -4.9357591033        0.1094192870        2.5430680833
 H         -3.2283225268        0.4948803015        2.8316237413
 H         -6.5087689623        0.8147792009       -1.1660221156
 H         -7.8587124607        0.2608950088       -0.1745324854
 H         -6.2153266819       -0.9772267244        1.2840240640
 H         -6.3741064954       -1.5653883601       -0.3799685631
 O         -4.1791013284       -1.2065419793       -1.1726583062
 C         -2.8562427459       -1.2245710899       -1.5849672812
 O         -2.6709875636       -1.7596734758       -2.6976552530
 O         -1.3591760556        0.3881004290        1.2936278376
 C         -0.4441133140       -0.7169298419       -1.2025569684
 C          0.4105935246       -1.4621148432       -0.2056303982
 C         -0.0762990106       -2.6340564284        0.3677322185
 C          0.6816271990       -3.3440191912        1.2778275362
 C          1.9516418866       -2.9138136237        1.6196762780
 C          2.4552012861       -1.7561569044        1.0408816530
 C          1.6838364650       -1.0352836402        0.1387688967
 H          2.0933941222       -0.1400371248       -0.2982857556
 N          3.7348779202       -1.2892059862        1.3725596976
 S          4.7215010795       -0.6252128031        0.1976051737
 O          4.5109248763       -1.2436731359       -1.0904088582
 O          6.0588010232       -0.7364273189        0.7415234018
 C          4.2738236419        1.0967428937        0.1361320468
 C          3.9428351180        1.7499784300        1.3066659366
 C          3.6403549571        3.1012965342        1.2553700102
 C          3.6821353186        3.7755330435        0.0443594448
 C          4.0230370979        3.1067821062       -1.1210129359
 C          4.3222753743        1.7538353048       -1.0773618735
 H          4.5806038452        1.1923326061       -1.9611955739
 H          4.0554340695        3.6322985804       -2.0624069175
 H          3.4463947546        4.8274903366        0.0081767971
 H          3.3714636693        3.6238638969        2.1592744493
 H          3.9158264647        1.1964158181        2.2302630794
 H          4.2526483638       -1.8758114448        2.0103982582
 H          2.5468298177       -3.4691054468        2.3286594107
 H          0.2843325156       -4.2452557543        1.7203759877
 H         -1.0646023817       -2.9784987444        0.0939618812
 H         -0.4373608480       -1.2882672766       -2.1432126963
 C          0.0470504066        0.6887620522       -1.4833219283
 C          1.0829498259        0.9375103997       -2.5366554451
 C         -0.3398005258        1.3431984818       -2.7743008218
 H         -0.5845937912        2.3945671109       -2.7675334056
 H         -0.9318354748        0.7607773664       -3.4656969097
 H          1.8133806077        1.7133502944       -2.3634319966
 H          1.4678262963        0.0829754514       -3.0732165750
 H          0.0644167848        1.3065636112       -0.5926350021
