  62
        -98.94239073
 C          0.7753682624        1.4909740030        0.1621905672
 C          1.4314375754        0.4651256798        0.8774599808
 C          2.3137990983       -0.4190392088        0.0971644984
 C          2.4048590496       -0.2468394023       -1.2330240096
 C          3.1629999830       -1.0743405291       -2.2425298521
 C          4.5602160499       -1.5736051265       -1.8570686101
 C          5.3793607284       -0.5911634336       -1.0075144560
 H          6.3567500066       -0.4487451900       -1.4720129924
 H          4.8842296973        0.3811830681       -0.9840887368
 C          5.6035904830       -1.0839252218        0.4234346175
 H          6.4570157388       -0.5503131061        0.8483870176
 H          5.8627706814       -2.1443573769        0.3925462087
 C          4.4248647635       -0.8826078768        1.3741790667
 H          4.6775080962       -1.3564766440        2.3256403404
 H          4.2888629765        0.1838832758        1.5727132876
 C          3.0756851740       -1.4418194185        0.8916001821
 H          3.2060858422       -2.3706316069        0.3408884550
 H          2.4645018050       -1.6390177899        1.7761322444
 H          5.0874360993       -1.7790881285       -2.7904060708
 H          4.4773841634       -2.5224351616       -1.3292906400
 H          2.5325538947       -1.9280313324       -2.5124106561
 H          3.2333174327       -0.4415318837       -3.1310642260
 O          1.7417152243        0.7491790364       -1.8858480031
 C          0.9088790515        1.6301179249       -1.2186136896
 O          0.3689275720        2.4831311154       -1.9496557479
 H         -1.3686784281        0.1026515127        0.3556288144
 C         -2.0023131801        0.9305010765        0.0721142238
 C         -1.5652580652        2.2291900290        0.3028041607
 C         -2.3997604556        3.2818886254       -0.0468832817
 C         -3.6194825015        3.0327099002       -0.6531905729
 C         -4.0206610268        1.7410150341       -0.9391702711
 C         -3.1991959087        0.6794725376       -0.5749477468
 N         -3.5661696420       -0.6483851835       -0.8363684818
 S         -2.3905289434       -1.7969297682       -1.1510102311
 O         -1.2503687774       -1.2509662330       -1.8502656626
 O         -3.1068271060       -2.8519499782       -1.8400203742
 C         -1.9216745478       -2.3958787316        0.4577988726
 C         -2.9174208771       -2.6554146986        1.3790476005
 C         -2.5655520408       -3.1642872766        2.6184455622
 C         -1.2330255759       -3.4139529913        2.9099851688
 C         -0.2466256307       -3.1543374510        1.9718588154
 C         -0.5909958278       -2.6372427465        0.7330509206
 H          0.1490543012       -2.4006170425       -0.0166837125
 H          0.7894731997       -3.3466306907        2.1992871422
 H         -0.9588038288       -3.8119711437        3.8741590362
 H         -3.3294433173       -3.3655052185        3.3520864918
 H         -3.9413132181       -2.4528395524        1.1131705270
 H         -4.3813058288       -0.7643645955       -1.4203819807
 H         -4.9550617881        1.5517602775       -1.4451237421
 H         -4.2569128808        3.8592222548       -0.9286661601
 H         -2.0893406490        4.2972673943        0.1373080996
 C         -0.1898115587        2.4037566540        0.8977704080
 H         -0.2078269381        2.0383855872        1.9354288448
 C          0.3012702824        3.8353218439        0.8891165427
 C         -0.0695587657        4.7679782518        2.0024501172
 C          1.3331351573        4.2531529258        1.8921961257
 H          2.1114479796        4.9323874416        1.5782235135
 H          1.6634863648        3.5085308624        2.6015830770
 H         -0.2529659327        5.8052900304        1.7663425812
 H         -0.6904813070        4.3779631798        2.7944831232
 H          0.3856903593        4.2383175352       -0.1140837271
 O          1.2734425961        0.2805027789        2.1147369735
