  62
        -98.94269756
 C         -1.6271265396       -1.4736339455        0.2318315407
 C         -1.3205244587       -0.3742677280       -0.6024266382
 C         -1.9784495063        0.8971453038       -0.2721861972
 C         -2.7925959759        0.9521669678        0.7973457306
 C         -3.5717471446        2.1576539696        1.2414492639
 C         -4.7966513688        2.3710038341        0.3294144655
 C         -4.7506000784        3.6579417332       -0.4942577074
 H         -5.5436441490        3.5968301891       -1.2424920485
 H         -4.9757911618        4.5046493884        0.1574917947
 C         -3.4214852074        3.9472260532       -1.1976241132
 H         -3.6140605918        4.7313128796       -1.9329802410
 H         -2.7086263221        4.3593175387       -0.4816206484
 C         -2.7684880937        2.7540285762       -1.9065700101
 H         -2.3401475423        3.1106860435       -2.8453297919
 H         -3.5160634407        2.0028434609       -2.1617609397
 C         -1.6242012994        2.0865901379       -1.1214765853
 H         -1.1162814625        2.8295648151       -0.4986519275
 H         -0.8880569345        1.7074745072       -1.8367339276
 H         -5.7029860543        2.3850846468        0.9366170578
 H         -4.8785143398        1.5112420190       -0.3385837587
 H         -3.8881753187        1.9761997682        2.2691329260
 H         -2.9232476344        3.0313872828        1.2301667815
 O         -3.0629385938       -0.1267360841        1.5783286199
 C         -2.4740061444       -1.3558065464        1.3308983421
 O         -2.7804459023       -2.2505559535        2.1468607875
 O         -0.5235795073       -0.4522594990       -1.5754265829
 C         -0.9449667654       -2.8081135941       -0.0078674237
 C          0.5535949841       -2.6193236329       -0.0203962861
 C          1.3985087837       -3.2865361240       -0.8989521810
 C          2.7631094474       -3.0546733244       -0.8740738180
 C          3.3103568292       -2.1387962488        0.0057916007
 C          2.4742887414       -1.4740969940        0.8951628389
 C          1.1154885536       -1.7409892781        0.8974882027
 H          0.4819789064       -1.2173800423        1.5990480035
 N          2.9731146417       -0.5122658388        1.7997487030
 S          2.4375834568        1.0647874651        1.6002628705
 O          3.1555137539        1.8308306795        2.5975036085
 O          1.0002327443        1.1145133849        1.6716395919
 C          3.0214355550        1.5232073849       -0.0225560413
 C          2.3394326398        1.0844274781       -1.1395629249
 C          2.8522278063        1.3875115168       -2.3921836695
 C          4.0268810772        2.1141622580       -2.5070276607
 C          4.6996254443        2.5462299090       -1.3736687705
 C          4.1968678780        2.2440997761       -0.1188777223
 H          4.6827399971        2.5596186518        0.7904329682
 H          5.6123698972        3.1129422536       -1.4636028758
 H          4.4189637484        2.3446216083       -3.4850978126
 H          2.3232452850        1.0464397633       -3.2677141424
 H          1.4236501601        0.5237262359       -1.0313721052
 H          3.9821902406       -0.5068552758        1.8677766368
 H          4.3708866294       -1.9365496938        0.0065596266
 H          3.4062828030       -3.5801462984       -1.5632064028
 H          0.9864080026       -3.9846994257       -1.6091036094
 H         -1.2069908759       -3.4445260720        0.8505769304
 C         -1.4759731584       -3.4501588140       -1.2738780799
 C         -1.5584495802       -4.9417833509       -1.3926619744
 C         -2.8090844730       -4.1324716533       -1.2317636079
 H         -3.4705687194       -4.0264171791       -2.0784198453
 H         -3.3198371402       -4.1581379366       -0.2798153596
 H         -1.3649590486       -5.3943241171       -2.3535740398
 H         -1.2270772341       -5.5305666681       -0.5506557918
 H         -1.2351835056       -2.8759648224       -2.1611967921
