  62
        -98.93340229
 C          2.3609510320       -0.9211149037       -0.7769252886
 C          3.1606576165       -0.6000796907        0.3445516028
 C          3.9690058081        0.6309771978        0.2451454447
 C          3.8752326303        1.3997053585       -0.8555411733
 C          4.6024607684        2.6663137430       -1.2570438296
 C          5.4258831552        3.4506817155       -0.2391778409
 C          4.6053631262        4.1339973569        0.8546734276
 H          5.2960598356        4.5617848058        1.5844441034
 H          4.0454572554        4.9574138717        0.4042226932
 C          3.6028793972        3.2416439353        1.5824018412
 H          3.0745980664        3.8590182916        2.3140255956
 H          2.8566413093        2.8736360672        0.8751973992
 C          4.2056819850        2.0534960303        2.3287359708
 H          3.4064181681        1.5938953157        2.9167577658
 H          4.9716516475        2.4051178179        3.0227855030
 C          4.8161818445        0.9553237758        1.4420264656
 H          4.8709808373        0.0375468507        2.0348302251
 H          5.8290619112        1.2094891766        1.1391513494
 H          5.9471733991        4.2332201750       -0.7972476058
 H          6.1902095410        2.8140626658        0.1965284366
 H          5.2598005978        2.3773933081       -2.0846300750
 H          3.8408701108        3.3252352118       -1.6860499326
 O          3.0449305320        1.0734939858       -1.8907664336
 C          2.2730253742       -0.0720603345       -1.8786941662
 O          1.5551404010       -0.2180912213       -2.8901688933
 O          3.2198309666       -1.3086291866        1.3822745363
 C          1.5123926760       -2.1820712786       -0.7996389250
 C          0.3900885786       -2.0375832977        0.2004760808
 C          0.2879643073       -2.7907342824        1.3612377342
 C         -0.7648440609       -2.5827136662        2.2367212448
 C         -1.7332217484       -1.6319848443        1.9738680065
 C         -1.6448161789       -0.8780056256        0.8096422171
 C         -0.5894601229       -1.0870934091       -0.0648621441
 H         -0.5132076891       -0.5011369284       -0.9731381334
 N         -2.6234089356        0.1000933210        0.5317226810
 S         -4.2332988783       -0.4088352283        0.6465798814
 O         -4.6018056126       -0.4438563372        2.0391957560
 O         -4.4161406575       -1.6428347511       -0.0856684826
 C         -5.0848849469        0.9277911493       -0.1669515309
 C         -5.3927966232        2.0617433194        0.5602963993
 C         -6.0442680122        3.1072167540       -0.0743955595
 C         -6.3741115357        3.0023762267       -1.4175533688
 C         -6.0583256967        1.8578753949       -2.1341834029
 C         -5.4059649748        0.8087989755       -1.5057598469
 H         -5.1512065467       -0.1034592036       -2.0214577846
 H         -6.3180474417        1.7780729605       -3.1775524007
 H         -6.8836617100        3.8161600163       -1.9088349520
 H         -6.2941128234        3.9977565818        0.4794122943
 H         -5.1266640739        2.0937550008        1.6038232695
 H         -2.4638298549        0.5326499614       -0.3689325053
 H         -2.5609638895       -1.4712107960        2.6452491475
 H         -0.8322882966       -3.1715508701        3.1392374283
 H          1.0354595722       -3.5328942841        1.5866097753
 H          1.0603369562       -2.2188660078       -1.8011535892
 C          2.3576992176       -3.4218547860       -0.6048816526
 C          1.8202468770       -4.7544725117       -1.0289571371
 C          2.9269858556       -4.1103138879       -1.8072575316
 H          3.9191304464       -4.5303897429       -1.7383369870
 H          2.6961406511       -3.6941704179       -2.7773325377
 H          2.0519691699       -5.6200053763       -0.4273023135
 H          0.8349805329       -4.7769018326       -1.4701338462
 H          2.9769637585       -3.3793768652        0.2823806944
