  62
        -98.94443359
 C         -1.9293783877       -0.8306464428        0.0197172775
 C         -2.4199399898        0.4844028607        0.2039080303
 C         -3.8339378281        0.5852600139        0.5888004784
 C         -4.5621673608       -0.5319540185        0.7669888759
 C         -6.0064015678       -0.5912792251        1.1852880778
 C         -6.9997416995       -0.4246272035        0.0272724317
 C         -7.1061674896        0.9916851793       -0.5392877948
 H         -7.9851953668        1.0128085095       -1.1865549604
 H         -7.2844911893        1.6951616925        0.2745786922
 C         -5.8842604942        1.4415838034       -1.3523653963
 H         -5.2898675655        0.5684207655       -1.6312700686
 H         -6.2171429982        1.9111570738       -2.2808139449
 C         -4.9806621402        2.4455522609       -0.6362462242
 H         -4.1298323625        2.6657406088       -1.2862537276
 H         -5.5265646056        3.3770727057       -0.4703668930
 C         -4.4324452732        1.9540640257        0.7098917699
 H         -5.2209702629        1.9610323630        1.4622062644
 H         -3.6387510336        2.6353869040        1.0266326629
 H         -6.7243605587       -1.1168039099       -0.7717261326
 H         -7.9842245600       -0.7194335356        0.3977555221
 H         -6.1995223697        0.1675737506        1.9440424452
 H         -6.1601515865       -1.5763573153        1.6310401918
 O         -4.0442272888       -1.7784418331        0.6024707434
 C         -2.7277821985       -1.9583094804        0.2101917762
 O         -2.3885542468       -3.1518436298        0.0778145685
 O         -1.7186959499        1.5194801675        0.0604308739
 C         -0.4879684096       -1.0503174709       -0.4047181252
 C          0.4448485901       -0.4057215522        0.5911436014
 C          0.2897602347       -0.7096245445        1.9420558686
 C          1.1030390266       -0.1300378542        2.8952038329
 C          2.0996788551        0.7551186277        2.5214559674
 C          2.2696846672        1.0586881127        1.1769002666
 C          1.4490280298        0.4737439948        0.2202457596
 H          1.5944608476        0.7435493640       -0.8117551264
 N          3.2636944268        1.9646410688        0.7732208049
 S          4.2421566593        1.6244799133       -0.5378435782
 O          5.3527833513        2.5413957480       -0.4068239447
 O          3.4905202579        1.7045272834       -1.7633737391
 C          4.7964898755       -0.0460786063       -0.2518632862
 C          4.1544205751       -1.0980141774       -0.8723405055
 C          4.5562027445       -2.3921527180       -0.5803787774
 C          5.5857762072       -2.6105627194        0.3216815323
 C          6.2242245505       -1.5420783974        0.9333102341
 C          5.8247008491       -0.2467570818        0.6487757546
 H          6.3020131395        0.6112770743        1.0937080019
 H          7.0282980492       -1.7153432660        1.6302661651
 H          5.8935381327       -3.6196386149        0.5464024157
 H          4.0620814918       -3.2240780844       -1.0565881988
 H          3.3617765514       -0.8890596460       -1.5714737739
 H          3.8042497029        2.3536625933        1.5318325215
 H          2.7310590007        1.2166947911        3.2654096399
 H          0.9628394086       -0.3689364995        3.9386568876
 H         -0.4910377588       -1.3993914565        2.2333876896
 H         -0.3259947396       -2.1377452496       -0.3729880518
 C         -0.2877702317       -0.5700874841       -1.8266867912
 C          0.7190375059       -1.2356845190       -2.7139915520
 C         -0.7457643677       -1.4381095107       -2.9584664202
 H         -1.1983156663       -0.9678561863       -3.8186482409
 H         -1.1791174671       -2.3948783090       -2.7046188295
 H          1.2802085318       -0.6251167206       -3.4062840122
 H          1.2729225006       -2.0660426567       -2.3020787879
 H         -0.4343284705        0.4990439657       -1.9330247447
