  62
        -98.93125780
 C         -2.4347035742       -0.9379625835        0.6939157552
 C         -3.4992181741       -0.8844607818       -0.2372101213
 C         -4.6523621199       -0.0434625259        0.1367142340
 C         -4.6362035367        0.6358018454        1.2952724387
 C         -5.7071748139        1.5170688573        1.8882724617
 C         -6.4436890236        2.4762965130        0.9436831209
 C         -5.5923548826        3.0382325340       -0.2041979590
 H         -5.6936679726        4.1250186231       -0.2220856042
 H         -4.5379836197        2.8126719785       -0.0344848951
 C         -6.0125287676        2.5050932231       -1.5760065516
 H         -7.1033219296        2.5038851602       -1.6326922578
 H         -5.6460273370        3.1886833976       -2.3456675998
 C         -5.4919783919        1.1113101678       -1.9242713760
 H         -5.9499832663        0.8072004319       -2.8686247849
 H         -4.4119590178        1.1503566706       -2.0909594715
 C         -5.7629219230        0.0232956727       -0.8723254456
 H         -6.7299423058        0.1668199183       -0.3967308469
 H         -5.7657355458       -0.9434847176       -1.3828309591
 H         -6.8148239391        3.2986891856        1.5577065590
 H         -7.3177980426        1.9783818943        0.5263651053
 H         -6.4389135161        0.8733496776        2.3852932759
 H         -5.2011614546        2.0899667469        2.6691559126
 O         -3.5784989012        0.5748988671        2.1534033047
 C         -2.4684893100       -0.2005500161        1.8803430844
 O         -1.5869853371       -0.1580007797        2.7630751056
 H          1.1951554184       -0.6956407027        1.1497308481
 C          0.9842324629       -0.5609934076        0.0969797564
 C         -0.2080588049       -1.0446266209       -0.4222456973
 C         -0.4756658855       -0.8498967413       -1.7730444207
 C          0.4321260255       -0.1835366955       -2.5760416933
 C          1.6187745538        0.3010377576       -2.0546135803
 C          1.8947307356        0.1141709445       -0.7069099228
 N          3.0874708216        0.6228812156       -0.1624718921
 S          4.4994698632        0.4202336428       -1.0690523001
 O          4.5716423077        1.4813160073       -2.0421728309
 O          4.5598061810       -0.9243943834       -1.5962298719
 C          5.7494418333        0.6566856225        0.1781994723
 C          6.3107968458       -0.4490513150        0.7882915923
 C          7.2673736005       -0.2577102770        1.7728072969
 C          7.6416126791        1.0288308430        2.1304906514
 C          7.0689486260        2.1287491902        1.5089800420
 C          6.1130119154        1.9447118248        0.5227143752
 H          5.6486985848        2.7684712024        0.0061393306
 H          7.3647762665        3.1270495489        1.7884926715
 H          8.3867013047        1.1748343423        2.8965683842
 H          7.7166198525       -1.1106945664        2.2555191873
 H          5.9963640041       -1.4307035021        0.4716982469
 H          3.2212866600        0.3388762317        0.7982887014
 H          2.3357695408        0.8163045063       -2.6736818935
 H          0.2138590860       -0.0381768302       -3.6236640332
 H         -1.4067510761       -1.2101606637       -2.1823154605
 C         -1.1782622271       -1.7684204329        0.4816914249
 H         -0.7114487890       -1.8483354954        1.4727849814
 C         -1.4619936297       -3.1694627497       -0.0232715551
 C         -0.4204169352       -4.2292349703        0.1657895579
 C         -1.6876002311       -4.2717447484        0.9651181584
 H         -2.4209492585       -5.0291105021        0.7325726332
 H         -1.6376604647       -4.0207455787        2.0149382105
 H         -0.2799263397       -4.9583125524       -0.6172994224
 H          0.4908977008       -3.9500578417        0.6732354387
 H         -2.0454425566       -3.1923288133       -0.9333845818
 O         -3.5211892598       -1.5087808525       -1.3300176921
