  62
        -98.93800690
 C         -1.3482335386       -1.6018044416       -0.0120334900
 C         -1.9236550893       -0.7639297023        0.9716165502
 C         -2.9768947402        0.1580416868        0.5136767905
 C         -3.3553175902        0.1267091567       -0.7757508795
 C         -4.3666754911        1.0133815259       -1.4479684793
 C         -3.6753716422        2.2162351166       -2.1118452291
 C         -3.4511878432        3.4179365967       -1.1941659689
 H         -4.4108007237        3.8998312458       -0.9954881787
 H         -2.8339019139        4.1340625173       -1.7420266888
 C         -2.7739658829        3.1072633471        0.1438485810
 H         -2.3402076437        4.0372059974        0.5173618311
 H         -1.9519386322        2.4060416378       -0.0135121592
 C         -3.7443246923        2.5523140960        1.1980444810
 H         -4.7664299725        2.7138779351        0.8557479011
 H         -3.6363336127        3.1221342659        2.1231673211
 C         -3.5513695509        1.0710220161        1.5615886607
 H         -4.5084602905        0.6598033252        1.8982815807
 H         -2.8603768608        0.9878535366        2.4058975806
 H         -4.2807172826        2.5462357462       -2.9586054390
 H         -2.7174585519        1.8729166276       -2.5123790992
 H         -4.8420989906        0.4128254156       -2.2263420294
 H         -5.1254701913        1.3368430051       -0.7415284492
 O         -2.7966403095       -0.7183808826       -1.6859779897
 C         -1.7652221987       -1.5798733718       -1.3426730599
 O         -1.3176670682       -2.2487911912       -2.2930180601
 H          0.4465321500       -0.1188283499       -0.6961001598
 C          1.2736007206       -0.8174841791       -0.7291298700
 C          1.1000842319       -2.1037899693       -0.2397915302
 C          2.1865284526       -2.9719538883       -0.2887694205
 C          3.4020540622       -2.5593741871       -0.8059728805
 C          3.5666007310       -1.2735360769       -1.2916757202
 C          2.4862649602       -0.4058620379       -1.2611295400
 N          2.6508011090        0.9256432123       -1.7249930998
 S          3.3445809482        1.9290507028       -0.5711872896
 O          3.2186632469        3.2748118127       -1.0832293794
 O          4.6821165986        1.4614388639       -0.3136888398
 C          2.3254665084        1.7150480516        0.8759036804
 C          2.6103840195        0.6807279117        1.7448585202
 C          1.7552266397        0.4473536507        2.8093700702
 C          0.6337385290        1.2428149396        2.9842999204
 C          0.3623222580        2.2777551796        2.1030389906
 C          1.2097296277        2.5130130005        1.0324519606
 H          1.0306217770        3.3055591405        0.3224712708
 H         -0.5143342325        2.8904062887        2.2397154908
 H         -0.0401633407        1.0436524489        3.8017512204
 H          1.9565692405       -0.3622261792        3.4921617800
 H          3.4910178700        0.0826531625        1.5737722600
 H          1.7784360086        1.3424854216       -2.0208156396
 H          4.5098699907       -0.9265193160       -1.6802234602
 H          4.2336894229       -3.2467184264       -0.8295505206
 H          2.0781202536       -3.9767113285        0.0867175794
 C         -0.2086569577       -2.5101813607        0.3970131598
 H         -0.1017740078       -2.3631281208        1.4832812698
 C         -0.5481951264       -3.9657624509        0.1377195096
 C         -0.1366695854       -5.0323949607        1.1070636393
 C         -1.5761681458       -4.6315772020        1.0017981895
 H         -2.2749249352       -5.3130906426        0.5405397594
 H         -2.0029473262       -4.0455930025        1.8028473696
 H          0.4028881444       -4.7289919904        1.9916844293
 H          0.1551897655       -5.9963060404        0.7180500191
 H         -0.5537313663       -4.2093764207       -0.9184492605
 O         -1.5630368192       -0.7759180522        2.1778860502
