  62
        -98.94587984
 C          1.6956501986        1.3097571647        0.4182743890
 C          1.2968159504        0.2232716564       -0.3967336754
 C          1.8912391342       -1.0775167312       -0.0683444262
 C          2.7078776871       -1.1936441681        0.9929680583
 C          3.3658681952       -2.4587374997        1.4732851128
 C          4.6639018398       -2.8121017625        0.7336707721
 C          4.4825574798       -3.3185607433       -0.6978986611
 H          5.4419423164       -3.7329539613       -1.0139022204
 H          3.7577120872       -4.1331492097       -0.7030416377
 C          4.0553009316       -2.2395757834       -1.7026174738
 H          4.6629532899       -2.3226176152       -2.6063628227
 H          4.2463463814       -1.2515302825       -1.2775663679
 C          2.5901445119       -2.3187287761       -2.1313034299
 H          2.4166933617       -3.2509040726       -2.6731086514
 H          2.3873886368       -1.4889691862       -2.8128236808
 C          1.5898387001       -2.2356490985       -0.9707136842
 H          0.5893517921       -2.0840253470       -1.3832234147
 H          1.5892853051       -3.1659361177       -0.4026256618
 H          5.1640871803       -3.5923984841        1.3120104512
 H          5.3133647661       -1.9335365964        0.7307650560
 H          2.6602788656       -3.2869341788        1.3963367691
 H          3.6007266055       -2.3035751979        2.5288177458
 O          3.0211865167       -0.1379529062        1.7915888393
 C          2.5227345451        1.1274406143        1.5280797104
 O          2.8803316334        1.9981824477        2.3486449521
 O          0.4869690731        0.3224698318       -1.3549957202
 C          1.1367918687        2.7068243222        0.2053815575
 C         -0.3530303662        2.6184128066       -0.0236174119
 C         -1.0185404709        3.2318483719       -1.0769133051
 C         -2.3876456720        3.0849741285       -1.2227223238
 C         -3.1148834660        2.3049673709       -0.3429387217
 C         -2.4568339752        1.6869890901        0.7143136425
 C         -1.0963689090        1.8740914322        0.8852820556
 H         -0.6001904881        1.3874209962        1.7134018601
 N         -3.1400499983        0.8487031177        1.6227878956
 S         -2.7295302838       -0.7776199514        1.5879235106
 O         -3.5751671582       -1.4007961672        2.5845907872
 O         -1.3092080201       -0.9319232569        1.7692447402
 C         -3.2380088579       -1.3228177360       -0.0338737706
 C         -4.4481922693       -1.9787448869       -0.1595405529
 C         -4.8874891281       -2.3436140108       -1.4215229100
 C         -4.1173669227       -2.0375588650       -2.5337162489
 C         -2.9084294460       -1.3750162786       -2.3901398548
 C         -2.4591212694       -1.0093017639       -1.1297118849
 H         -1.5190918532       -0.4948690757       -0.9983978869
 H         -2.3041858740       -1.1322968572       -3.2496296680
 H         -4.4598191541       -2.3170715764       -3.5176277455
 H         -5.8268468805       -2.8606944711       -1.5336778608
 H         -5.0106867883       -2.1958732440        0.7342521848
 H         -4.1468602499        0.9295786457        1.5679100968
 H         -4.1778409826        2.1667541084       -0.4730207605
 H         -2.8908230090        3.5674309454       -2.0466518802
 H         -0.4642117780        3.8088066560       -1.7985948665
 H          1.2967624756        3.2249966414        1.1660953718
 C          1.8681056228        3.5177019400       -0.8549278448
 C          3.2845281383        3.2011110594       -1.2299551750
 C          2.1780998327        2.9565100662       -2.2090420241
 H          2.1009276365        3.6100511446       -3.0656153715
 H          1.8781140524        1.9394879728       -2.4038029938
 H          3.9621200372        4.0227110176       -1.4082850129
 H          3.7493964520        2.3488262966       -0.7551675447
 H          1.6131518251        4.5718969068       -0.8083797193
