  62
        -98.93558166
 C         -1.4020058296       -1.1128587901        0.6930284200
 C         -2.3687555399       -1.1527193801       -0.3412568897
 C         -3.6361372799       -0.4599815702       -0.0557004392
 C         -3.8020512395        0.1621718297        1.1248217609
 C         -5.0224063095        0.9406605995        1.5219806514
 C         -4.8881907697        2.4222891196        1.1441170615
 C         -4.4413544302        2.6544841198       -0.2993765186
 H         -4.4139734003        3.7344679798       -0.4608941585
 H         -3.4185194502        2.2884479098       -0.4191720990
 C         -5.3424895705        2.0011677898       -1.3566548484
 H         -5.5211166908        2.7224097698       -2.1569301682
 H         -6.3108203203        1.7576122797       -0.9179118781
 C         -4.7510250806        0.7495166599       -2.0076033187
 H         -3.7395059108        0.9643661100       -2.3618621290
 H         -5.3589174309        0.5023118599       -2.8819434385
 C         -4.6957654802       -0.5006737802       -1.1208593788
 H         -5.6780627801       -0.6828720203       -0.6803076585
 H         -4.4416978304       -1.3500834601       -1.7615025190
 H         -5.8503911297        2.9097621195        1.3120148219
 H         -4.1527353995        2.8844031696        1.8071698113
 H         -5.8952792096        0.5091376695        1.0357999917
 H         -5.1433389891        0.8611579194        2.6037283315
 O         -2.8452957792        0.1875808796        2.0891285706
 C         -1.6261991692       -0.4382944402        1.8941968402
 O         -0.8351067289       -0.3328459703        2.8551200799
 O         -2.1994994202       -1.7323831300       -1.4425695298
 C         -0.0419647396       -1.7836153800        0.5363862795
 C          0.6192681300       -1.2484061398       -0.7103090207
 C          0.7714240796       -1.8920453297       -1.9317705208
 C          1.3950277592       -1.2528342895       -2.9907782809
 C          1.9002011791        0.0268497705       -2.8607921210
 C          1.7375817295        0.6915721404       -1.6510187909
 C          1.0917153999        0.0574345602       -0.6031591807
 H          0.9373340302        0.6018090101        0.3173455294
 N          2.2369385695        1.9900262004       -1.4606238809
 S          2.9144178499        2.3752738403        0.0201615889
 O          1.8827399802        2.6976674101        0.9739456593
 O          3.8479439197        3.4409173804       -0.2791131913
 C          3.8010835002        0.9070525303        0.5136357285
 C          4.8687745400        0.5096313605       -0.2679594119
 C          5.5429392302       -0.6553422095        0.0583247177
 C          5.1365389406       -1.4033985596        1.1529823178
 C          4.0689792408       -0.9868382398        1.9326293482
 C          3.3927810206        0.1803763802        1.6131848485
 H          2.5539825108        0.5296275801        2.1958402388
 H          3.7507064912       -1.5665845399        2.7844177482
 H          5.6546036508       -2.3157920296        1.4025453475
 H          6.3772850900       -0.9790447893       -0.5426239626
 H          5.1601278096        1.1204333306       -1.1069400120
 H          2.7819259992        2.3514217205       -2.2296835911
 H          2.3982206988        0.5137430706       -3.6850453911
 H          1.4948077789       -1.7692153694       -3.9333849410
 H          0.3795585596       -2.8800914397       -2.0873780008
 H          0.5522784307       -1.3965787300        1.3800079093
 C         -0.1587604794       -3.2789011300        0.7934865594
 C         -0.7163108896       -4.2924741000       -0.1570778005
 C          0.7405979905       -4.3205883599        0.1998440290
 H          1.0857867108       -5.1139481499        0.8461299988
 H          1.4650435003       -4.0091213097       -0.5347590112
 H         -1.3565979194       -5.0594571301        0.2557820396
 H         -1.0331406700       -3.9575724499       -1.1307982304
 H         -0.4319687890       -3.4297007601        1.8361383695
