  62
        -98.95046051
 C         -1.7542940103       -1.2932434897       -0.2391695607
 C         -2.8558588700       -0.6660380796        0.3863701896
 C         -3.2833498398        0.6122963207       -0.1954437601
 C         -2.6254223198        1.1037560607       -1.2615205601
 C         -2.9395583495        2.4070335909       -1.9367884798
 C         -2.1077899691        3.5567682006       -1.3534411697
 C         -2.1379963889        3.6318203403        0.1730887503
 H         -1.6096625491        2.7653404801        0.5789467201
 H         -1.5583096586        4.5111546801        0.4646497604
 C         -3.5444772488        3.7218323806        0.7816196506
 H         -3.5339013184        4.4802773104        1.5674228007
 H         -4.2555355688        4.0509894009        0.0225737507
 C         -4.0484974190        2.4270664906        1.4219523404
 H         -4.9294671689        2.6660047607        2.0241655106
 H         -3.2841345790        2.0364561402        2.0992405602
 C         -4.4475263495        1.3104832409        0.4488468702
 H         -4.9771782796        0.5433279809        1.0216270601
 H         -5.1287541695        1.7068297812       -0.3069978296
 H         -1.0670526992        3.4240283204       -1.6586566699
 H         -2.4731058589        4.4955689808       -1.7752213894
 H         -2.7076099197        2.3069649011       -2.9987636199
 H         -4.0010848095        2.6204704212       -1.8250644796
 O         -1.5731850601        0.4717957105       -1.8380286304
 C         -1.0911095403       -0.7194615797       -1.3228085607
 O         -0.0920408105       -1.1704640599       -1.9171054009
 H         -0.1027890598       -0.4935410105        1.5156250492
 C          0.6257107999       -1.2650107607        1.3127583689
 C          0.2286545195       -2.4465369905        0.7000607287
 C          1.1886254492       -3.4236311807        0.4668912984
 C          2.5116814293       -3.2055940311        0.8119091782
 C          2.9100988297       -2.0046513213        1.3700839884
 C          1.9549011901       -1.0258617811        1.6165580788
 N          2.3017435405        0.2356437587        2.1482820890
 S          2.0804374907        1.5401264789        1.1137853693
 O          2.5665666811        2.6900211387        1.8469065294
 O          0.7108012606        1.5935873794        0.6771697595
 C          3.1873461804        1.1948222589       -0.2420911310
 C          4.4536519105        1.7483024285       -0.2091996710
 C          5.3568277703        1.4217510785       -1.2070529612
 C          4.9837557099        0.5401618888       -2.2108973314
 C          3.7112684698       -0.0089357008       -2.2266254813
 C          2.7988653000        0.3165594692       -1.2336249211
 H          1.8021264799       -0.0978642605       -1.2346740510
 H          3.4120552395       -0.6948030006       -3.0029669214
 H          5.6870482097        0.2798836488       -2.9862154515
 H          6.3458512304        1.8507776682       -1.1973561613
 H          4.6962871308        2.4298069783        0.5903400891
 H          3.2406710505        0.2724326383        2.5226146988
 H          3.9466698798       -1.8219551117        1.6106300783
 H          3.2457336391       -3.9739002513        0.6233298080
 H          0.9016406589       -4.3550169005        0.0067586083
 C         -1.2245565406       -2.5995231500        0.3238402889
 H         -1.8046742705       -2.7813724800        1.2413583890
 C         -1.4763955410       -3.7358602397       -0.6460726213
 C         -1.7180706113       -5.1262368198       -0.1407327015
 C         -2.8490314312       -4.3321509993       -0.7195704412
 H         -3.2386145214       -4.6127518790       -1.6865686212
 H         -3.5958244510       -3.9355402993       -0.0472143010
 H         -1.3334119917       -5.9570683598       -0.7128032717
 H         -1.7040709312       -5.2798012700        0.9277149785
 H         -0.9333121411       -3.6136402797       -1.5766581413
 O         -3.4541973400       -1.1545339096        1.3847095396
