  62
        -98.93977689
 C         -1.7242445414       -1.3086692297        0.5085714797
 C         -1.5374155107       -0.2441641798       -0.4090502203
 C         -2.7587527703        0.2680693807       -1.0545399705
 C         -3.9497306007       -0.2790790787       -0.7554577807
 C         -5.2706038403        0.1833139319       -1.2970134110
 C         -5.9048054800        1.2389316322       -0.3805556912
 C         -4.9524741996        2.3690714418        0.0109978190
 H         -5.5158737993        3.0697484021        0.6310945888
 H         -4.1512723599        1.9634177315        0.6334459191
 C         -4.3363186790        3.1200285615       -1.1777107010
 H         -4.9205014489        2.9304702217       -2.0790434011
 H         -4.3863756185        4.1926132615       -0.9786794510
 C         -2.8677260091        2.7864792008       -1.4477985807
 H         -2.2895786292        2.8885061305       -0.5251477605
 H         -2.4766455386        3.5214632705       -2.1568326006
 C         -2.5957419996        1.3957011406       -2.0345765005
 H         -3.2237664895        1.2379806309       -2.9139928307
 H         -1.5482698796        1.3729508901       -2.3498214103
 H         -6.7779409097        1.6557078326       -0.8857546314
 H         -6.2438741204        0.7456347324        0.5332946488
 H         -5.1258825000        0.5927251518       -2.2947933710
 H         -5.9376823607       -0.6780718578       -1.3598603011
 O         -4.0904786113       -1.2982145686        0.1296325993
 C         -2.9939907117       -1.8178375891        0.7973054795
 O         -3.2758803923       -2.7185168489        1.6127379295
 H          1.9156372888       -0.9047315614        0.6176881004
 C          1.4890678588       -0.4319479012        1.4868744903
 C          0.2373983886       -0.8168308206        1.9431758101
 C         -0.3016442114       -0.1676848303        3.0507002600
 C          0.3996976090        0.8310106094        3.6976363001
 C          1.6513950993        1.2067928188        3.2435150303
 C          2.1919898292        0.5795233985        2.1285235404
 N          3.4701084694        0.9380692479        1.6506618407
 S          3.5561415001        1.6436486978        0.1221793706
 O          4.8309352704        2.3352596172        0.1285356809
 O          2.4012813605        2.4687094883       -0.1434108596
 C          3.6646894097        0.2834386777       -1.0168481493
 C          2.6240834497        0.0208367881       -1.8838845095
 C          2.7677491294       -1.0116857320       -2.7985782494
 C          3.9337644890       -1.7610975925       -2.8223586091
 C          4.9646052890       -1.4893728930       -1.9347588790
 C          4.8337543893       -0.4528925729       -1.0254793390
 H          5.6156641693       -0.1932310732       -0.3313896389
 H          5.8676000887       -2.0781170734       -1.9533952588
 H          4.0374371788       -2.5631071326       -3.5365816891
 H          1.9638513994       -1.2281177616       -3.4842982595
 H          1.7193899300        0.6028995386       -1.8097085297
 H          3.9829568296        1.5235844277        2.2968362207
 H          2.2053208295        1.9877967686        3.7436575504
 H         -0.0294977909        1.3218400097        4.5583656700
 H         -1.2830982016       -0.4605803098        3.3995334698
 C         -0.5701210618       -1.9123083702        1.2926564800
 H         -1.0541953823       -2.4861029400        2.0999008799
 C          0.2822005578       -2.9049750807        0.5173420102
 C         -0.3672738925       -3.8973402604       -0.4002104799
 C          0.5107434382       -2.8206409908       -0.9594786298
 H          1.4840664781       -3.0970530813       -1.3372722596
 H          0.0508360987       -2.0062508506       -1.4948673899
 H         -0.0043151929       -4.9138834006       -0.4009160298
 H         -1.4351773424       -3.8139506499       -0.5426340401
 H          1.1095064776       -3.2727932010        1.1167422204
 O         -0.4209524504        0.2575665896       -0.6940608601
