  62
        -98.94694107
 C         -2.0946136405       -0.9929988991       -0.5146337595
 C         -1.4849930503        0.1071186309       -1.1639850393
 C         -2.1340972300        1.4128767310       -0.9718794390
 C         -3.2341959699        1.5032105611       -0.2050519589
 C         -3.9609406096        2.7763386511        0.1160343215
 C         -3.4310181194        3.4129121007        1.4079623916
 C         -1.9080106193        3.5404059204        1.4604648315
 H         -1.6565133491        4.0445000801        2.3967425716
 H         -1.4574347196        2.5454513802        1.5077930512
 C         -1.2916106093        4.3108107305        0.2845852316
 H         -2.0574176892        4.9085043208       -0.2124760982
 H         -0.5417580691        5.0011893702        0.6767794017
 C         -0.5850477995        3.4230186906       -0.7416382086
 H          0.0252603206        4.0630024006       -1.3851353785
 H          0.0888388403        2.7406955703       -0.2169030488
 C         -1.5076356998        2.5990429810       -1.6496691387
 H         -2.2745215197        3.2462700413       -2.0809208985
 H         -0.9009654300        2.1954366310       -2.4654850989
 H         -3.7510306094        2.7995908306        2.2536537215
 H         -3.8826494391        4.4012269608        1.5149931619
 H         -3.8504688195        3.4709204713       -0.7144880984
 H         -5.0195173197        2.5433264614        0.2450740815
 O         -3.7965305201        0.4274113410        0.4029751909
 C         -3.2360813604       -0.8309573891        0.2766243106
 O         -3.8480495006       -1.7243150691        0.8981496705
 H          0.7400435295       -1.0158380399       -0.1726595298
 C          0.5992843294       -1.7720686200        0.5805225701
 C         -0.5156158808       -2.5974718397        0.5247897600
 C         -0.6785442610       -3.5721208999        1.5015389598
 C          0.2466638591       -3.7049208904        2.5216550497
 C          1.3311109193       -2.8512454206        2.5994636098
 C          1.5034191894       -1.8706911305        1.6270324900
 N          2.5911436596       -0.9897880607        1.6945918201
 S          2.4455378100        0.6423243094        1.3132999105
 O          3.2442067202        1.3188593690        2.3172266506
 O          1.0649981601        1.0466054097        1.2235979607
 C          3.2967398999        0.7697925495       -0.2457990796
 C          2.6069522798        0.8240779500       -1.4388456595
 C          3.3275014797        0.8964967601       -2.6224169595
 C          4.7125904897        0.9117644597       -2.5950790096
 C          5.3911075798        0.8578555893       -1.3863239197
 C          4.6787783999        0.7860706092       -0.2014590097
 H          5.1640090400        0.7573716689        0.7600861803
 H          6.4689761398        0.8711084391       -1.3653463398
 H          5.2652220397        0.9668341598       -3.5199322997
 H          2.7939292497        0.9361360004       -3.5587748195
 H          1.5278722898        0.8009802602       -1.4454641394
 H          3.1687324897       -1.1097190011        2.5139724900
 H          2.0387988893       -2.9346788810        3.4107436797
 H          0.1109508090       -4.4660486505        3.2751446695
 H         -1.5479585011       -4.2123552897        1.4700399497
 C         -1.5489068009       -2.4132675393       -0.5621677499
 H         -2.4004036310       -3.0657035991       -0.3233971500
 C         -0.9987973811       -2.8246822591       -1.9129570000
 C         -0.9533949715       -4.2807891990       -2.2623361504
 C         -1.9322005013       -3.3753003686       -2.9467685101
 H         -1.7647212913       -3.1157704084       -3.9810886200
 H         -2.9766180913       -3.4594541184       -2.6824214800
 H         -0.1103562016       -4.6475104891       -2.8272312705
 H         -1.3361271216       -4.9829986491       -1.5371389805
 H         -0.1889633510       -2.1973271192       -2.2591165799
 O         -0.4551586704        0.0306798008       -1.8852509494
