  62
        -98.93407424
 C         -1.4537891326       -1.6869583835        0.4207674389
 C         -1.4833102490       -0.5513170234       -0.4232707031
 C         -2.5067104102        0.4721272879       -0.1109870920
 C         -3.2701901038        0.3242685369        0.9851318063
 C         -4.3771660427        1.2147475276        1.4887076269
 C         -5.4174865352        1.6416648134        0.4403218075
 C         -5.3591562191        3.1316061458        0.1029379064
 H         -6.3296861990        3.4392469406       -0.2926976078
 H         -5.1914504664        3.6920752838        1.0250862750
 C         -4.2971240277        3.5152720808       -0.9254861874
 H         -4.2709157209        4.6062104678       -0.9795007344
 H         -4.6002355597        3.1492114419       -1.9087731021
 C         -2.8825763476        3.0060779439       -0.6354396202
 H         -2.6618745828        3.0845192944        0.4283483378
 H         -2.1875172305        3.6656345692       -1.1593526171
 C         -2.6216156857        1.5755600255       -1.1284091538
 H         -3.3897858263        1.2913804311       -1.8548818154
 H         -1.6705276886        1.5406039594       -1.6688903205
 H         -6.4085608593        1.4220211205        0.8405488779
 H         -5.2959149229        1.0464004261       -0.4640173037
 H         -3.9381057733        2.0974386365        1.9585973953
 H         -4.8622447087        0.6459608324        2.2850955617
 O         -3.1069358154       -0.7218799862        1.8470623756
 C         -2.2264079901       -1.7535301236        1.5814481806
 O         -2.2115068553       -2.6511311679        2.4483592460
 O         -0.7116410262       -0.3873775298       -1.4011866195
 C         -0.5392480007       -2.8686213052        0.1475067084
 C          0.8490095565       -2.3942307374       -0.2028719388
 C          1.4669367187       -2.6441293254       -1.4204549486
 C          2.7464374391       -2.1766066695       -1.6654034679
 C          3.4356790966       -1.4567886391       -0.7074824999
 C          2.8229806422       -1.1950321599        0.5114965528
 C          1.5425778267       -1.6650148599        0.7557420581
 H          1.0639144900       -1.4581259846        1.7057623690
 N          3.5127792792       -0.4527445670        1.4899122233
 S          4.1919569042        0.9999091991        1.0044663750
 O          5.4224870961        0.7402925133        0.3000788005
 O          4.3105915418        1.7834642272        2.2143046846
 C          2.9952516586        1.7279359093       -0.0966059077
 C          3.2323047384        1.7674569016       -1.4547264862
 C          2.2598812241        2.2970240432       -2.2873680440
 C          1.0755751446        2.7743263423       -1.7501990089
 C          0.8532060443        2.7289752388       -0.3829911391
 C          1.8187981777        2.1959595139        0.4529847961
 H          1.6805191454        2.1479706943        1.5218205262
 H         -0.0705993782        3.0963331325        0.0330779762
 H          0.3190682834        3.1831834948       -2.4016157005
 H          2.4260207584        2.3306527101       -3.3519579049
 H          4.1686060619        1.3903682641       -1.8319145475
 H          2.9865976677       -0.3254683178        2.3422303627
 H          4.4342340883       -1.0901379015       -0.8812348028
 H          3.2136276691       -2.3745777269       -2.6179931670
 H          0.9379965327       -3.1844514228       -2.1877654669
 H         -0.4741356704       -3.4037108028        1.1096074966
 C         -1.1050676925       -3.8602597704       -0.8591593947
 C         -2.5843841848       -4.0582979084       -0.9978263424
 C         -1.8054756244       -3.4265918263       -2.1102557349
 H         -1.6455656546       -4.0005331049       -3.0113132469
 H         -1.9156466002       -2.3676445423       -2.2806802301
 H         -2.9566095659       -5.0628884349       -1.1319981181
 H         -3.2317608281       -3.4306685524       -0.4022245102
 H         -0.4948603241       -4.7557070480       -0.9270368389
