  62
        -98.93810941
 C         -2.2413815259       -0.9451161059        0.3146296293
 C         -2.4166079467       -0.0316293641       -0.7506311356
 C         -3.2624549818        1.1431422482       -0.4688186868
 C         -3.7818570034        1.2961296322        0.7616011904
 C         -4.7079687985        2.3819422320        1.2354016182
 C         -6.1751784204        1.9399525263        1.1007717338
 C         -6.8105311497        2.2211152388       -0.2603860142
 H         -7.7940205024        1.7455985911       -0.2635378816
 H         -6.9666979781        3.2965999130       -0.3675508208
 C         -6.0178738490        1.7190865148       -1.4701643987
 H         -5.6326429373        0.7179447276       -1.2683263879
 H         -6.7089923087        1.6356148066       -2.3111091072
 C         -4.8647830552        2.6531815835       -1.8664437844
 H         -4.9824684828        3.6037029621       -1.3462890376
 H         -4.9299142599        2.8744637497       -2.9336899284
 C         -3.4546163025        2.0980487149       -1.6152735670
 H         -3.1195983189        1.5409139277       -2.4958173244
 H         -2.7579597441        2.9340916688       -1.4930128777
 H         -6.2233202897        0.8693634952        1.3162120384
 H         -6.7665358748        2.4525001131        1.8622468554
 H         -4.4879750718        2.5399544923        2.2934044513
 H         -4.5247994336        3.3071738655        0.6972177999
 O         -3.5572465734        0.4075792589        1.7701234428
 C         -2.7903370286       -0.7266436591        1.5765741552
 O         -2.6640447480       -1.4451644887        2.5902949175
 H          0.1120568022       -0.3148563203        1.2265613476
 C          0.6445084543       -0.8090020483        0.4219122163
 C          0.0056664685       -1.8179476188       -0.2886437923
 C          0.7064971070       -2.4557656709       -1.3034503352
 C          2.0013540320       -2.0725229519       -1.6084363772
 C          2.6245803978       -1.0535223802       -0.9126282943
 C          1.9388637899       -0.4188322182        0.1151084041
 N          2.5576241763        0.6262398953        0.8234219565
 S          4.1003150819        0.3710619632        1.4353315338
 O          4.3247546761       -1.0229449469        1.7411226847
 O          4.2267839955        1.2990594081        2.5381010411
 C          5.1759457559        0.8898222344        0.1149219662
 C          6.1507436107        0.0331739589       -0.3577622512
 C          6.9823752759        0.4639342832       -1.3799053722
 C          6.8258352118        1.7365986332       -1.9071478099
 C          5.8435618951        2.5856730754       -1.4191131900
 C          5.0097787203        2.1618666309       -0.3967587816
 H          4.2364012552        2.7907351938        0.0119578645
 H          5.7243422236        3.5745604306       -1.8317214502
 H          7.4730011368        2.0692980949       -2.7032368099
 H          7.7468597323       -0.1941462776       -1.7604435546
 H          6.2310969166       -0.9495885083        0.0787813646
 H          1.9638785989        1.0485614393        1.5223913976
 H          3.6297025079       -0.7480791764       -1.1528178658
 H          2.5314434380       -2.5723090496       -2.4046888786
 H          0.2377402128       -3.2506766877       -1.8596201547
 C         -1.4020434260       -2.1925944259        0.1099778140
 H         -1.3526541796       -2.6896031805        1.0906992072
 C         -2.0828486509       -3.1223932382       -0.8732063690
 C         -1.9026598574       -4.6055958190       -0.7620494264
 C         -3.2121621844       -3.9797510979       -0.3894322972
 H         -4.0615595651       -4.1301438893       -1.0387282903
 H         -3.4703201888       -3.9135877505        0.6579514117
 H         -1.8563255910       -5.1894090507       -1.6689268380
 H         -1.2741057924       -4.9751762732        0.0341799247
 H         -2.1726539662       -2.6872228659       -1.8617287636
 O         -1.8982208232       -0.1882434509       -1.8863413409
