  62
        -98.94579239
 C          2.2101342027        1.1506596878        0.1946399647
 C          1.8803680152        0.2317145428       -0.8314291461
 C          2.6295962553       -1.0348120346       -0.8189949937
 C          3.5534287811       -1.2469693663        0.1360888858
 C          4.3613016566       -2.5033022999        0.2851672494
 C          3.6634024121       -3.5118524963        1.2081994947
 C          2.1953729614       -3.7545449349        0.8575070517
 H          1.8122513565       -4.5041510324        1.5535484464
 H          1.6302469922       -2.8362398700        1.0356029108
 C          1.9574815766       -4.2244324587       -0.5844658650
 H          2.8878692794       -4.6045784801       -1.0076723017
 H          1.2455517572       -5.0523857985       -0.5690348487
 C          1.3758344212       -3.1544308423       -1.5099781484
 H          0.4929840804       -2.7138960584       -1.0406522640
 H          1.0462286249       -3.6457529570       -2.4291762085
 C          2.3325316036       -2.0242955734       -1.9112739196
 H          3.2577949619       -2.4510384922       -2.3037180322
 H          1.8548525181       -1.4495811223       -2.7102138264
 H          4.2097183617       -4.4557228415        1.1650750764
 H          3.7141024625       -3.1375092506        2.2335043674
 H          4.5211314702       -2.9445274438       -0.6967548326
 H          5.3284729430       -2.2396108750        0.7165276420
 O          3.8286632839       -0.3467978363        1.1148935973
 C          3.1653115034        0.8694680482        1.1704597711
 O          3.5054236496        1.5983342072        2.1251609104
 H          0.1758658740        0.6946728608        1.6805736536
 C         -0.5018764892        1.3445644882        1.1395964170
 C          0.0214584108        2.3454066468        0.3311938456
 C         -0.8629389074        3.1704547889       -0.3524789779
 C         -2.2303265820        2.9931458310       -0.2277394886
 C         -2.7465876291        1.9888545409        0.5696966500
 C         -1.8704849581        1.1537938653        1.2519472206
 N         -2.3824557453        0.1072977969        2.0368121699
 S         -3.6413363789       -0.7983063459        1.4049189814
 O         -4.8953180316       -0.1585573401        1.7197985593
 O         -3.4639412935       -2.1249974500        1.9548810562
 C         -3.4136840142       -0.8149324730       -0.3654746372
 C         -4.4880514075       -0.5345591767       -1.1854787260
 C         -4.3022650714       -0.5386884630       -2.5585758268
 C         -3.0486148047       -0.8087322332       -3.0849450068
 C         -1.9789282826       -1.0890048854       -2.2488546026
 C         -2.1637911019       -1.1005293586       -0.8766832696
 H         -1.3428275563       -1.3097918207       -0.2086378287
 H         -0.9949028594       -1.2708328476       -2.6495995356
 H         -2.8994743597       -0.7971798791       -4.1530372708
 H         -5.1321204397       -0.3222893525       -3.2119465614
 H         -5.4401780074       -0.3108215897       -0.7321396590
 H         -1.6754452944       -0.4863293089        2.4445467045
 H         -3.8086250475        1.8370320193        0.6773625325
 H         -2.9043122721        3.6435265283       -0.7635611035
 H         -0.4809190677        3.9534563890       -0.9862690041
 C          1.5208849461        2.5017428603        0.2503094114
 H          1.8612724169        2.9777698872        1.1822263892
 C          1.9704091784        3.3524826504       -0.9209926084
 C          2.0805245151        4.8403227648       -0.7820069309
 C          3.3194837096        4.0014969369       -0.8627861210
 H          3.9142197354        4.0400403689       -1.7630523853
 H          3.9001860507        3.8546371891        0.0367468391
 H          1.8272301980        5.4580694356       -1.6304360612
 H          1.8267804154        5.2751745774        0.1730167391
 H          1.6506785506        2.9476868351       -1.8742418504
 O          1.0113433925        0.4534290211       -1.7118521762
