  62
        -98.93586000
 C         -2.5497033959       -1.0219274549       -0.4290255634
 C         -2.4879920313        0.1892143496        0.3048165824
 C         -3.7644123780        0.6574784308        0.8663312409
 C         -4.8789001299       -0.0792220500        0.7179539450
 C         -6.2458305726        0.2602031338        1.2471677066
 C         -7.0461294000        1.2091649711        0.3443759144
 C         -6.5643214170        2.6605249489        0.3359193072
 H         -7.3378950612        3.2515341758       -0.1584379747
 H         -6.4849196786        3.0214254521        1.3618303818
 C         -5.2322673282        2.8821444358       -0.3941762133
 H         -5.0186871920        2.0210121656       -1.0316762239
 H         -5.3166321498        3.7516173963       -1.0499660116
 C         -4.0371185322        3.1243278582        0.5278643303
 H         -4.1814070743        4.0572267679        1.0771872367
 H         -3.1428459229        3.2339117712       -0.0910254790
 C         -3.7799618435        1.9977624986        1.5374389946
 H         -2.7957405753        2.1548979452        1.9856654493
 H         -4.5315043574        2.0202646559        2.3262478875
 H         -7.0342175589        0.8149897933       -0.6745276776
 H         -8.0811528527        1.1945664766        0.6935796887
 H         -6.7913482911       -0.6827504745        1.3254350505
 H         -6.1559630478        0.6930520878        2.2439205061
 O         -4.8823478095       -1.2712344642        0.0630751764
 C         -3.7314198998       -1.7614037340       -0.5314232836
 O         -3.8842985048       -2.8579404614       -1.1068172100
 H          0.9937729691       -0.1284879972       -1.1161411510
 C          0.9475410848       -0.8150800353       -0.2847961203
 C         -0.1635198627       -1.6272772711       -0.1266543605
 C         -0.2127276727       -2.4817509056        0.9708420788
 C          0.8218907586       -2.5170219710        1.8861077532
 C          1.9257101846       -1.6973288229        1.7304187277
 C          1.9824646258       -0.8376821605        0.6420312468
 N          3.0877952911        0.0238798341        0.4910490134
 S          4.6230867701       -0.6724914815        0.5831239574
 O          4.7126090861       -1.8018258570       -0.3178139581
 O          4.9243515772       -0.9477232377        1.9651453170
 C          5.6378870347        0.6706186452       -0.0013046052
 C          6.0485581560        0.6884802207       -1.3205839129
 C          6.8158813286        1.7520195862       -1.7693002566
 C          7.1543190692        2.7752666820       -0.8967186729
 C          6.7348089592        2.7428819501        0.4250180074
 C          5.9686432519        1.6818846209        0.8804547724
 H          5.6275252359        1.6103782959        1.8999418529
 H          7.0022794184        3.5392422515        1.1006777777
 H          7.7511244393        3.6019691747       -1.2484505068
 H          7.1462247580        1.7785613186       -2.7952716140
 H          5.7695572152       -0.1328082248       -1.9612069331
 H          3.0085128040        0.5841927986       -0.3473103163
 H          2.7412880168       -1.7161194612        2.4349433789
 H          0.7694347259       -3.1865996735        2.7318734134
 H         -1.0792208378       -3.1172378148        1.0988557698
 C         -1.3225655574       -1.6247311988       -1.0923322871
 H         -1.5944712526       -2.6750295449       -1.2877925015
 C         -0.9789862970       -1.0116401346       -2.4420037935
 C         -2.0652552896       -0.5581864653       -3.3701422203
 C         -1.1497952168        0.4463036576       -2.7408868105
 H         -0.4141263807        0.9284941433       -3.3684019634
 H         -1.5363660441        1.0783032093       -1.9574934804
 H         -1.9607652443       -0.7648163095       -4.4245954433
 H         -3.0826488125       -0.6215285976       -3.0119031323
 H         -0.1293670530       -1.5080352500       -2.9020990938
 O         -1.4397607123        0.8586479183        0.4873118286
