  62
        -98.94334510
 C         -1.9029910081        0.5944031603        0.7599610993
 C         -2.2653653687        0.1136709347       -0.5217806465
 C         -3.7009846975        0.1501516887       -0.8292504286
 C         -4.5680031531        0.6422963923        0.0743757090
 C         -6.0560422534        0.7752231796       -0.1064272605
 C         -6.8413530267       -0.5058612968        0.2059513275
 C         -6.7030317904       -1.6217298651       -0.8303674720
 H         -7.4682158046       -2.3665885823       -0.6027788504
 H         -6.9212867950       -1.2238493675       -1.8218976922
 C         -5.3309350726       -2.3099223464       -0.8395505309
 H         -5.4676273093       -3.3931103565       -0.8743726580
 H         -4.8039743657       -2.0836262303        0.0901949871
 C         -4.4374394636       -1.9278371374       -2.0196866398
 H         -3.4803680566       -2.4427314137       -1.9053709725
 H         -4.8948679161       -2.2690407545       -2.9510122321
 C         -4.1542584542       -0.4244805593       -2.1373532825
 H         -3.3456127534       -0.2824824676       -2.8584876247
 H         -5.0402279815        0.0983505409       -2.4971798802
 H         -6.5294958443       -0.8765895607        1.1851081167
 H         -7.8966529087       -0.2319007781        0.2753924271
 H         -6.2739888608        1.0978172502       -1.1249789634
 H         -6.3836580697        1.5562759974        0.5831673314
 O         -4.1746763395        1.1125904193        1.2887984746
 C         -2.8415856551        1.0855736854        1.6662934594
 O         -2.6218971809        1.5299005070        2.8122267347
 O         -1.4376763891       -0.3164423162       -1.3655368092
 C         -0.4464848604        0.5870953970        1.1827810422
 C          0.3976214862        1.3965584220        0.2275686443
 C         -0.1038295177        2.5876756864       -0.2905189260
 C          0.6487130153        3.3541042405       -1.1584738344
 C          1.9288973617        2.9634234833       -1.5091591113
 C          2.4479378603        1.7876760566       -0.9829781196
 C          1.6811592833        1.0088960164       -0.1263944066
 H          2.1028006581        0.0999755944        0.2694704896
 N          3.7408161188        1.3619610855       -1.3209774010
 S          4.7345750624        0.6967952925       -0.1514067061
 O          4.4791430488        1.2630547486        1.1523611824
 O          6.0752899055        0.8759608586       -0.6682034148
 C          4.3532412421       -1.0420337462       -0.1545432709
 C          4.0766001571       -1.6695652770       -1.3530008775
 C          3.8289020505       -3.0329645665       -1.3518819709
 C          3.8709066176       -3.7442256147       -0.1621710004
 C          4.1567212402       -3.1005416017        1.0317863463
 C          4.4003884721       -1.7357644867        1.0383413186
 H          4.6139298093       -1.1935738138        1.9457504252
 H          4.1893298157       -3.6544629903        1.9567137113
 H          3.6787161017       -4.8056312168       -0.1649662087
 H          3.6031232493       -3.5363643216       -2.2781795156
 H          4.0491691019       -1.0876140915       -2.2589621663
 H          4.2487796500        1.9867279926       -1.9300601499
 H          2.5205531971        3.5634268000       -2.1839105562
 H          0.2390479679        4.2689874295       -1.5598177893
 H         -1.0994711450        2.9027883809       -0.0084388895
 H         -0.4098992942        1.0834979092        2.1645282598
 C          0.0337352779       -0.8416310178        1.3419201914
 C          1.0691368698       -1.1893514625        2.3673356973
 C         -0.3572446566       -1.5992205030        2.5739780114
 H         -0.6132663482       -2.6436142059        2.4789443834
 H         -0.9418366138       -1.0711489746        3.3137073964
 H          1.7909347842       -1.9554145647        2.1270998016
 H          1.4633497077       -0.3874778927        2.9739504687
 H          0.0425641815       -1.3817462643        0.4019971638
