  62
        -98.94850696
 C          1.2329630298        1.5143825854        0.4969313478
 C          2.1712323837        1.2054068510       -0.5169693389
 C          3.2296726477        0.2576990069       -0.1413201822
 C          3.2517874727       -0.2506555724        1.1039838773
 C          4.2439636670       -1.2609087333        1.6012521673
 C          3.7249042443       -2.6927535320        1.4114438776
 C          3.1920878926       -2.9825407986        0.0077288055
 H          2.9011836863       -4.0356279954       -0.0151195642
 H          2.2767733408       -2.4070818023       -0.1555393777
 C          4.1914025906       -2.7043534589       -1.1239849723
 H          5.2048159210       -2.6704119779       -0.7214925668
 H          4.1508296466       -3.5342492556       -1.8327863274
 C          3.9179268303       -1.4268781444       -1.9202317786
 H          2.8690197099       -1.4086594390       -2.2288351985
 H          4.5268941309       -1.4558082958       -2.8279405342
 C          4.2313179724       -0.1099606788       -1.1987542268
 H          5.2403101981       -0.1475342726       -0.7832298543
 H          4.1923595454        0.6931612244       -1.9405719582
 H          4.5349419823       -3.3866328542        1.6453990595
 H          2.9117237618       -2.8659069335        2.1204337644
 H          5.1844692795       -1.1309647406        1.0692799675
 H          4.4108105641       -1.0841608500        2.6654391896
 O          2.3363205952        0.0732415947        2.0523538426
 C          1.2864546051        0.9290649970        1.7608701673
 O          0.4781508267        1.0910322872        2.6991647523
 H         -0.4180364239       -0.1601742023       -0.2136221062
 C         -0.9531505646        0.4486878225       -0.9251317878
 C         -0.7979869424        1.8268371153       -0.8983287788
 C         -1.4731216204        2.5849997909       -1.8471656189
 C         -2.2672711226        1.9669224713       -2.7979708529
 C         -2.4246717515        0.5924315534       -2.8137598629
 C         -1.7567645332       -0.1736597468       -1.8656177084
 N         -1.8764655601       -1.5712631948       -1.8325559066
 S         -1.8795262340       -2.3580085357       -0.3561074594
 O         -0.5517808957       -2.3923004449        0.2029849641
 O         -2.4753144224       -3.6457954992       -0.6433114446
 C         -2.9887678228       -1.3983128159        0.6596879874
 C         -4.3325624240       -1.4475550985        0.3389854234
 C         -5.2271878212       -0.6771179119        1.0619908373
 C         -4.7648900069        0.1338635731        2.0879876532
 C         -3.4158178812        0.1675865185        2.4020475386
 C         -2.5154081728       -0.6048927852        1.6839571456
 H         -1.4614557854       -0.5869813083        1.9150077606
 H         -3.0448642078        0.7938460114        3.1979736293
 H         -5.4584610109        0.7406173928        2.6484074303
 H         -6.2779554811       -0.7072244829        0.8230688422
 H         -4.6529867329       -2.0995294637       -0.4573242324
 H         -2.5530956904       -1.9602530721       -2.4722660410
 H         -3.0461021256        0.1149012151       -3.5554680191
 H         -2.7781050938        2.5663301597       -3.5360105054
 H         -1.3704240583        3.6578316022       -1.8471761901
 C          0.0617984009        2.4279762974        0.1891899669
 H         -0.5435543589        2.4652140823        1.1079561703
 C          0.5426378758        3.8279675516       -0.1335414403
 C         -0.2858552319        5.0191509588        0.2409362612
 C          0.9755724765        4.7182497699        0.9912626707
 H          1.8331605784        5.3570988645        0.8432989482
 H          0.8949191360        4.3226090153        1.9936367050
 H         -0.2927691831        5.8707898337       -0.4225662129
 H         -1.2251199095        4.8396350215        0.7419534594
 H          1.1154146824        3.8676927932       -1.0526001866
 O          2.1269564816        1.6913500424       -1.6775061022
