  62
        -98.94671975
 C         -1.9925554767       -1.4548922507       -0.0948641139
 C         -1.7157883564       -0.2164572291       -0.7199603248
 C         -2.8670170398        0.6771353887       -0.9087425093
 C         -4.0898643530        0.2660366084       -0.5265455372
 C         -5.3375740063        1.0956731363       -0.6112506964
 C         -5.5673061462        1.8871263967        0.6842367351
 C         -4.3336421816        2.6464436243        1.1729240570
 H         -4.6233358025        3.1884443522        2.0757564185
 H         -3.5642497140        1.9272593554        1.4631641232
 C         -3.7467008900        3.6311226220        0.1519428509
 H         -3.5198427464        4.5695542660        0.6621060015
 H         -4.4872186604        3.8518335446       -0.6176578110
 C         -2.4513104129        3.1595076122       -0.5115734011
 H         -1.7428541734        2.8415384876        0.2580165422
 H         -2.0112010022        4.0111262889       -1.0375909563
 C         -2.6021298248        2.0204830497       -1.5281197412
 H         -3.3790646522        2.2729656239       -2.2524584287
 H         -1.6533798435        1.9202537077       -2.0639290836
 H         -6.3871481201        2.5885410956        0.5189976843
 H         -5.8711932393        1.1882708170        1.4670851766
 H         -5.2581560446        1.7765037979       -1.4565298575
 H         -6.1850236604        0.4275184857       -0.7734316452
 O         -4.3223099057       -0.9489742159        0.0337717383
 C         -3.2819448551       -1.8294948261        0.2824986436
 O         -3.6263146108       -2.8930204285        0.8363053807
 O         -0.5668404058        0.1305795202       -1.0972627621
 C         -0.8589732303       -2.4265775627        0.1819686447
 C          0.1945062357       -1.7445582078        1.0208291808
 C         -0.1911523402       -1.1577508900        2.2245734799
 C          0.7302510748       -0.5130284188        3.0257456894
 C          2.0570836613       -0.4307396814        2.6386881203
 C          2.4539194915       -1.0168676395        1.4438509251
 C          1.5273525171       -1.6800076744        0.6483350424
 H          1.8662570857       -2.1195867458       -0.2741894376
 N          3.8003468879       -0.9717767064        1.0354761308
 S          4.2018284703       -0.3238319465       -0.4564682835
 O          3.5631273052       -1.0726009915       -1.5063857356
 O          5.6490247692       -0.3135242501       -0.4684931321
 C          3.6017487008        1.3553596773       -0.3997750735
 C          4.4987262862        2.3608632226       -0.0917285740
 C          4.0401273600        3.6636362636        0.0115754585
 C          2.6945805582        3.9372808774       -0.1845347565
 C          1.8084727696        2.9157614206       -0.4874758134
 C          2.2593504128        1.6087944318       -0.5970124264
 H          1.5776635656        0.8069486245       -0.8327179231
 H          0.7599639568        3.1168042270       -0.6407180236
 H          2.3340906662        4.9506404230       -0.1020990317
 H          4.7295560082        4.4588925438        0.2455857052
 H          5.5358889164        2.1015257996        0.0479462273
 H          4.4223355789       -0.5909022929        1.7351968536
 H          2.7789426852        0.0789244197        3.2589135218
 H          0.4140965047       -0.0640459209        3.9552428580
 H         -1.2302912286       -1.2158557370        2.5206577748
 H         -1.2947421163       -3.2435723959        0.7755280686
 C         -0.3275397925       -3.0002592256       -1.1144712627
 C          0.3217106083       -4.3503230634       -1.1266104971
 C         -1.0343189112       -4.1647372229       -1.7371280901
 H         -1.1263257397       -4.1976144644       -2.8124523805
 H         -1.8918108020       -4.5616789202       -1.2129357768
 H          1.1649085936       -4.5086470219       -1.7822939162
 H          0.3869892603       -4.8821663772       -0.1892943333
 H          0.0664867476       -2.2422167100       -1.7823639487
