  62
        -98.94570011
 C         -2.5623398858       -0.1196488528        0.0682724517
 C         -2.4387953979       -1.1814009010       -0.8572710222
 C         -1.9250372581       -2.4447223489       -0.3191949989
 C         -1.6068399400       -2.5323160231        0.9853557650
 C         -1.0580465281       -3.7472622597        1.6827776613
 C          0.4612060549       -3.9042273458        1.5293447038
 C          0.9262258645       -4.3919693642        0.1564200118
 H          1.9680118443       -4.7010018624        0.2617326247
 H          0.3506277768       -5.2720125955       -0.1338165710
 C          0.8418306549       -3.3295724218       -0.9481722561
 H          0.7773038930       -2.3363004112       -0.4967918690
 H          1.7624535162       -3.3394309936       -1.5377042807
 C         -0.3178955816       -3.5116771110       -1.9277816241
 H         -0.3085324774       -2.6640076867       -2.6186084505
 H         -0.1657228748       -4.4240825532       -2.5100039714
 C         -1.7039327001       -3.5791168082       -1.2742614887
 H         -1.8322730366       -4.5341310392       -0.7647650078
 H         -2.4561710183       -3.4977207658       -2.0633945709
 H          0.9333767081       -2.9426167041        1.7465251496
 H          0.7942948725       -4.6230344545        2.2817923380
 H         -1.2882080703       -3.6262232883        2.7434171922
 H         -1.5599450983       -4.6434673034        1.3163284734
 O         -1.7707094636       -1.4979694920        1.8511955932
 C         -2.2104749556       -0.2598776612        1.4111813940
 O         -2.2637712977        0.6125519689        2.2999825186
 O         -2.7435543187       -1.0763622806       -2.0782665303
 C         -2.9831956407        1.2491609296       -0.4303207828
 C         -1.8759074123        2.2503535249       -0.1965260349
 C         -2.1107417283        3.5915781178        0.0775941045
 C         -1.0508515987        4.4616583911        0.2728789321
 C          0.2563529164        4.0160453535        0.2196796137
 C          0.5019482083        2.6725707157       -0.0489561333
 C         -0.5592753230        1.8166758367       -0.2845710687
 H         -0.3548904535        0.7831229313       -0.5231189502
 N          1.8146737420        2.1721371287       -0.0383028373
 S          2.1443861180        0.5580343695       -0.3499642340
 O          1.8427705606        0.2207651364       -1.7252629528
 O          1.5190334468       -0.2473715537        0.6683135937
 C          3.9103439044        0.5715777566       -0.1100602389
 C          4.3977148550        0.5770773441        1.1831489042
 C          5.7682836900        0.6183467786        1.3831632244
 C          6.6245215348        0.6540863500        0.2922824887
 C          6.1212711049        0.6453313214       -0.9997263896
 C          4.7510244712        0.6047174416       -1.2060883950
 H          4.3133090603        0.5879412280       -2.1912368226
 H          6.7891266838        0.6697189220       -1.8456634797
 H          7.6908603784        0.6860969956        0.4507700648
 H          6.1626506291        0.6220464263        2.3865092265
 H          3.6927347375        0.5401064340        1.9977525605
 H          2.5166444912        2.8071759882       -0.3870866655
 H          1.0799179772        4.6909066450        0.3923893217
 H         -1.2480973915        5.5024606781        0.4804467715
 H         -3.1236457226        3.9549183804        0.1404952081
 H         -3.1198395015        1.1361871975       -1.5175086457
 C         -4.3022156608        1.6696809063        0.1856006463
 C         -5.2807021827        2.4930410134       -0.5962641844
 C         -5.5670452050        1.0480062152       -0.3237748137
 H         -6.3401938399        0.7962497314        0.3863239605
 H         -5.4764735466        0.3442973728       -1.1385627331
 H         -5.8630415120        3.2357932645       -0.0721373156
 H         -5.0092308954        2.7712308722       -1.6035422357
 H         -4.2222621714        1.8405046625        1.2532576981
