  62
        -98.94391448
 C          2.0428480098        0.8041834195        0.1015020805
 C          2.4867036200       -0.5164117002       -0.1493752803
 C          3.8313847500       -0.8386831303        0.3462793697
 C          4.5375085498        0.0861607894        1.0215265604
 C          5.9086703797       -0.1017367408        1.6120153104
 C          7.0539121298        0.1129315201        0.6130715907
 C          7.2269931502       -0.9958960792       -0.4256113700
 H          8.1877770602       -0.8279738887       -0.9163612298
 H          7.2844339503       -1.9602198395        0.0802584393
 C          6.1272534503       -1.0382807187       -1.4957377902
 H          5.5857134801       -0.0895627788       -1.4991691596
 H          6.5833008004       -1.1498628179       -2.4820608202
 C          5.1238301505       -2.1796631290       -1.3294059211
 H          5.6336810707       -3.1373964388       -1.4558008017
 H          4.3718931706       -2.0925472586       -2.1178509311
 C          4.3948623003       -2.1889518200        0.0207958988
 H          3.5590569104       -2.8901335901       -0.0443841318
 H          5.0690188303       -2.5216380504        0.8098528687
 H          6.9000343097        1.0676696004        0.1049327213
 H          7.9788106297        0.1887144699        1.1894606009
 H          6.0062702195        0.6364987487        2.4109562909
 H          5.9866137699       -1.0978941411        2.0484909098
 O          4.0591799395        1.3341490691        1.2713194612
 C          2.8148919495        1.7275925692        0.8075989913
 O          2.5092345392        2.9037899489        1.0898554120
 O          1.8033123503       -1.3826539699       -0.7548257710
 C          0.6760104297        1.2588985496       -0.3812180093
 C         -0.3914046402        0.4290980990        0.2889717200
 C         -0.5038340704        0.4868317980        1.6759223200
 C         -1.4618349603       -0.2536666626        2.3410097794
 C         -2.3306687601       -1.0697816323        1.6371490187
 C         -2.2267108299       -1.1341136114        0.2550435387
 C         -1.2692831300       -0.3805958807       -0.4128314907
 H         -1.2017317498       -0.4469484800       -1.4870339107
 N         -3.1209466897       -1.9491540210       -0.4645879220
 S         -4.7522818898       -1.6995558315       -0.1785090920
 O         -5.1354059798       -2.3517319124        1.0481437275
 O         -5.4264261095       -2.1520726208       -1.3747086524
 C         -4.8980240101        0.0697918083       -0.0013135108
 C         -5.1573829704        0.6215743974        1.2362732695
 C         -5.1920421906        2.0014715574        1.3599982804
 C         -4.9617142406        2.8006480681        0.2512689310
 C         -4.7054812904        2.2307546390       -0.9866408793
 C         -4.6699886101        0.8523313891       -1.1161553203
 H         -4.4808179499        0.3755730698       -2.0644442806
 H         -4.5287022804        2.8550227396       -1.8478612989
 H         -4.9825247208        3.8744534881        0.3513207817
 H         -5.3925366308        2.4480519767        2.3205669907
 H         -5.3290645803       -0.0353012332        2.0730569390
 H         -2.9300441495       -1.9818077003       -1.4554846520
 H         -3.0824827801       -1.6593627328        2.1364270182
 H         -1.5335094105       -0.1981742134        3.4166428394
 H          0.1779238294        1.1222735477        2.2250121405
 H          0.5640040095        2.2951105293       -0.0326184786
 C          0.6092948099        1.2447388106       -1.8935920393
 C         -0.4111265601        2.0851009209       -2.5996788989
 C          1.0379454298        2.4643124612       -2.6500403385
 H          1.5750235099        2.3327366919       -3.5775319885
 H          1.3668443096        3.3167786209       -2.0737079278
 H         -0.8688205899        1.6981135114       -3.4976170592
 H         -1.0702893403        2.6830308604       -1.9888180886
 H          0.8647156402        0.2808722009       -2.3184042800
