  62
        -98.94702801
 C         -2.2288009820       -0.6923554640       -0.4910064149
 C         -1.4685606785        0.2989934570       -1.1561951719
 C         -1.8768555783        1.6926185720       -0.9244836304
 C         -2.9043028661        1.9565146652       -0.0991978783
 C         -3.3897287488        3.3292938772        0.2641303125
 C         -2.6946704972        3.8556266256        1.5269874067
 C         -1.1706817015        3.7332822200        1.4970834800
 H         -0.7908743525        4.1829621353        2.4177419085
 H         -0.8859317065        2.6780768158        1.5222372453
 C         -0.5008830839        4.4019027738        0.2885727962
 H         -1.1841386718        5.1202011508       -0.1673883039
 H          0.3716081197        4.9577098484        0.6387288426
 C         -0.0052146932        3.4169306578       -0.7717388092
 H          0.5685048875        2.6276153915       -0.2793514867
 H          0.6716528675        3.9495502197       -1.4456959744
 C         -1.0964508733        2.7652270912       -1.6314235904
 H         -1.7663503841        3.5343814817       -2.0221226806
 H         -0.6071315483        2.2742972452       -2.4776076395
 H         -3.0648579192        3.2927947045        2.3872343202
 H         -2.9729156843        4.9029993382        1.6610297863
 H         -4.4641171276        3.2742846805        0.4493242215
 H         -3.2089750667        4.0047788775       -0.5698651082
 O         -3.6082130725        0.9825432633        0.5326037690
 C         -3.2815275051       -0.3507625465        0.3635279382
 O         -4.0049751066       -1.1371289580        1.0096279617
 O         -0.4966647270        0.0607024226       -1.9220320112
 C         -1.9410479889       -2.1844764999       -0.5821425019
 C         -0.9075928895       -2.5666201608        0.4516922127
 C         -1.1725456896       -3.5487160988        1.3980174876
 C         -0.2393556023       -3.8528639480        2.3733807728
 C          0.9556224364       -3.1607932574        2.4409648040
 C          1.2306875829       -2.1752971770        1.4979618679
 C          0.3158080181       -1.9123469465        0.4905068603
 H          0.5388860521       -1.1570433682       -0.2429909827
 N          2.4274413333       -1.4464427046        1.5549363252
 S          2.4545250289        0.2200690195        1.3088931015
 O          3.3078856683        0.7321339948        2.3641588015
 O          1.1232328417        0.7686593915        1.2485413759
 C          3.3278026954        0.3865463351       -0.2349386711
 C          2.6513906655        0.5112000414       -1.4307386303
 C          3.3850611772        0.6114559558       -2.6040539726
 C          4.7697232716        0.5829312208       -2.5651187586
 C          5.4347054749        0.4568739811       -1.3543994642
 C          4.7092240117        0.3575060867       -0.1794801597
 H          5.1839184091        0.2729702656        0.7840706087
 H          6.5121993280        0.4360564405       -1.3236195142
 H          5.3322712292        0.6605864729       -3.4822599750
 H          2.8616759622        0.7081247878       -3.5419648920
 H          1.5722501429        0.5270956408       -1.4495451015
 H          3.0161355057       -1.6890345777        2.3388541215
 H          1.6703856030       -3.3734355235        3.2220063295
 H         -0.4544377183       -4.6190512519        3.1029669010
 H         -2.1245730713       -4.0586790403        1.3797310769
 H         -2.8812313258       -2.6853542272       -0.3119344966
 C         -1.5296973662       -2.6560605550       -1.9624110670
 C         -1.7604654710       -4.0880626255       -2.3370442097
 C         -2.5876463227       -3.0062861528       -2.9630954629
 H         -2.4179903596       -2.7561450458       -3.9993647766
 H         -3.6186489726       -2.9088575469       -2.6544535044
 H         -1.0203406621       -4.5859618789       -2.9441703956
 H         -2.2336465409       -4.7277565328       -1.6074149043
 H         -0.6348751299       -2.1754135965       -2.3334241149
