  62
        -98.94377533
 C          1.4869457703        1.2605924286        0.7162187192
 C          2.5462402119        1.1744575283       -0.2193593706
 C          3.4310220163        0.0062728342       -0.0760688768
 C          3.1490165627       -0.9334375513        0.8439707772
 C          3.9288622548       -2.2006166768        1.0430627218
 C          3.3949452219       -3.3419086920        0.1654237941
 C          3.1979141878       -2.9581612057       -1.3008318579
 H          2.8342458810       -3.8449730321       -1.8246026643
 H          2.4166590228       -2.1977387965       -1.3730030756
 C          4.4611333635       -2.4328027812       -1.9956841179
 H          5.3453816410       -2.7102987912       -1.4206999814
 H          4.5486938119       -2.9086329240       -2.9747018627
 C          4.4623857780       -0.9214327039       -2.2297757962
 H          5.2871673223       -0.6817986889       -2.9062491126
 H          3.5356464099       -0.6255576873       -2.7279339808
 C          4.6344960990       -0.0560935020       -0.9753560286
 H          5.5105054049       -0.3924321542       -0.4165575721
 H          4.8127723254        0.9710193147       -1.3070445728
 H          4.0914329703       -4.1797666855        0.2307282910
 H          2.4333446994       -3.6710358041        0.5651069111
 H          4.9757145755       -2.0134270036        0.8105489220
 H          3.8479597014       -2.4920884347        2.0915286989
 O          2.0825216291       -0.8504557956        1.6794754085
 C          1.2408817056        0.2462907660        1.6476935215
 O          0.3202135305        0.2115811952        2.4875099369
 O          2.7696384813        2.0154305224       -1.1289003821
 C          0.4941895649        2.4142304997        0.7476304973
 C         -0.6048741834        2.1104839368       -0.2404571652
 C         -0.4105154411        2.2180075788       -1.6133767953
 C         -1.4170619307        1.8619804541       -2.4933555349
 C         -2.6328017047        1.3910688819       -2.0268001387
 C         -2.8312968267        1.2729826644       -0.6583964465
 C         -1.8233756747        1.6351361160        0.2241018489
 H         -1.9741800206        1.5187399073        1.2892069450
 N         -4.0601604934        0.7605515340       -0.1788134013
 S         -4.2951973804       -0.8766411768       -0.4523381906
 O         -4.3248880029       -1.1068500418       -1.8735810658
 O         -5.4884339635       -1.2296995375        0.2817490436
 C         -2.8702451178       -1.6657901549        0.2724829518
 C         -1.7028522982       -1.7399739455       -0.4600272862
 C         -0.5759623798       -2.2819015762        0.1352617483
 C         -0.6312814944       -2.7306014200        1.4448846318
 C         -1.8107756126       -2.6471591763        2.1671416666
 C         -2.9413350960       -2.1050088076        1.5791452673
 H         -3.8786921848       -2.0214228645        2.1059940207
 H         -1.8462561889       -2.9911919066        3.1882451549
 H          0.2545940920       -3.1329259388        1.9105679361
 H          0.3461117752       -2.3402249525       -0.4214792122
 H         -1.6929073391       -1.3786801263       -1.4760517810
 H         -4.1997127921        0.9413954890        0.8063127570
 H         -3.4184465170        1.0890147742       -2.7000122263
 H         -1.2528872609        1.9483394638       -3.5569477935
 H          0.5453143923        2.5546371185       -1.9839652415
 H          0.0507988310        2.3960669206        1.7523166205
 C          1.1177312575        3.7763653517        0.5289350236
 C          0.3460049052        4.9935655876        0.9382199125
 C          1.5574377004        4.5770910035        1.7159841307
 H          2.4554504332        5.1704911400        1.6321016888
 H          1.4110149216        4.1452659839        2.6956030183
 H          0.4092735812        5.8755056096        0.3196775801
 H         -0.6229455682        4.8433681602        1.3904908870
 H          1.7268733949        3.8422245189       -0.3616787853
