  62
        -98.94564497
 C          2.4868106148        1.1624292012       -0.0212561471
 C          3.1219379540        0.3027970956        0.9062826284
 C          3.6911408820       -0.9302959170        0.3531057744
 C          3.5843393428       -1.1814681030       -0.9645818034
 C          4.1216351775       -2.3908421147       -1.6804995554
 C          3.1868412467       -3.6072465959       -1.6285343372
 C          3.1064228474       -4.3071273779       -0.2712247327
 H          2.5943220625       -5.2579968249       -0.4309456103
 H          4.1135331466       -4.5330276548        0.0807557998
 C          2.3488787677       -3.5162598201        0.8048617295
 H          1.7436965792       -2.7400177698        0.3279030981
 H          1.6532713089       -4.1804597899        1.3237981505
 C          3.2439557094       -2.8748924654        1.8661206227
 H          3.7506344959       -3.6566038928        2.4361870283
 H          2.6083320280       -2.3141479791        2.5566433996
 C          4.3010742263       -1.9134124591        1.3064486274
 H          5.0979926133       -2.4736335633        0.8186422325
 H          4.7263245382       -1.3495228101        2.1402410130
 H          3.5485884787       -4.3290030924       -2.3644457250
 H          2.1856971693       -3.2931337516       -1.9352039419
 H          4.2511695192       -2.1013487934       -2.7254310469
 H          5.0949665544       -2.6598905026       -1.2695648821
 O          2.9668011119       -0.3295094334       -1.8245533589
 C          2.3723796847        0.8414629559       -1.3744031719
 O          1.7986888133        1.4972614157       -2.2635960773
 O          3.2021257576        0.5507576889        2.1404658796
 C          1.8232995975        2.4294169217        0.4921920906
 C          0.3305150951        2.2870932649        0.3222610193
 C         -0.4601303534        3.1754612633       -0.3926973800
 C         -1.8154940808        2.9364373113       -0.5475970204
 C         -2.4094859681        1.8178202275        0.0069937933
 C         -1.6283292544        0.9273214040        0.7326921096
 C         -0.2747513445        1.1709830584        0.8892223994
 H          0.3345594184        0.4709396846        1.4489580358
 N         -2.2260502329       -0.2208107819        1.2979367050
 S         -2.8495327558       -1.3261487829        0.1895338279
 O         -2.8542698929       -2.5976538637        0.8805398408
 O         -2.1308050542       -1.2788254059       -1.0641490073
 C         -4.5278530507       -0.7798043869       -0.0384541434
 C         -5.3649841482       -0.7793590766        1.0603606528
 C         -6.6725584543       -0.3480981380        0.9044776366
 C         -7.1183584336        0.0706436554       -0.3405539573
 C         -6.2662883848        0.0602790784       -1.4344202396
 C         -4.9563446201       -0.3687042510       -1.2851606931
 H         -4.2547735337       -0.3876337637       -2.1040403448
 H         -6.6143800566        0.3859925058       -2.4014623830
 H         -8.1360793928        0.4073077826       -0.4595066259
 H         -7.3382753814       -0.3390609310        1.7523791526
 H         -4.9782937990       -1.1180118692        2.0069185589
 H         -1.6102267734       -0.7063664631        1.9360619474
 H         -3.4630594758        1.6272720333       -0.1170033944
 H         -2.4170625647        3.6310899419       -1.1136087857
 H         -0.0133570465        4.0466338652       -0.8423288454
 H          2.0433349037        2.4562305127        1.5697051884
 C          2.4063770082        3.6647833282       -0.1566988771
 C          2.3144333745        4.9878669458        0.5413550589
 C          3.6337019920        4.2852325354        0.4381010820
 H          4.3828113735        4.6850464436       -0.2285792737
 H          4.0417868391        3.8263452003        1.3268956932
 H          2.1593611983        5.8749889021       -0.0535311302
 H          1.8266096394        5.0107372079        1.5039744384
 H          2.3296132362        3.6465252574       -1.2375342705
