  62
        -98.94953175
 C         -1.6235358605        0.8341775390        0.6990023718
 C         -1.4707552720        1.6125447494       -0.4734182447
 C         -0.4675970009        2.6855683217       -0.4038835005
 C          0.2543029026        2.8427501032        0.7199570645
 C          1.3021441911        3.8976336393        0.9308682225
 C          2.7047429392        3.4132488786        0.5413391809
 C          2.7817847574        2.7664528967       -0.8417683047
 H          3.8303151098        2.5205997309       -1.0283829204
 H          2.2336655723        1.8214105839       -0.8438635969
 C          2.2505271290        3.6391479366       -1.9867527173
 H          2.2178336181        4.6853401671       -1.6784571937
 H          2.9443564719        3.5682632464       -2.8271447252
 C          0.8758604310        3.2138300677       -2.5075146286
 H          0.7116070326        3.6967440428       -3.4749891938
 H          0.8726188111        2.1325959924       -2.6725859059
 C         -0.3164133011        3.5689571650       -1.6094523436
 H         -0.2555705999        4.6195483377       -1.3149492721
 H         -1.2286022495        3.4286720345       -2.1971277607
 H          3.3831544578        4.2681668898        0.5788406266
 H          3.0420845731        2.6828609170        1.2807423134
 H          1.0386333474        4.7767407683        0.3454841865
 H          1.3037958467        4.1660847586        1.9891345034
 O          0.1162235984        2.0401157011        1.8071789238
 C         -0.8171786788        1.0145063728        1.8212362833
 O         -0.8320919516        0.3474204200        2.8754137518
 O         -2.1545162922        1.4396207800       -1.5164392259
 C         -2.6401298356       -0.2942589543        0.7360854948
 C         -2.2998415333       -1.3020774102       -0.3346669493
 C         -3.2257223548       -1.8450125798       -1.2151366976
 C         -2.8172060753       -2.7356445418       -2.1935867863
 C         -1.4863926060       -3.0873146042       -2.3252406239
 C         -0.5545938047       -2.5595151272       -1.4382111444
 C         -0.9731685107       -1.7001468955       -0.4374561317
 H         -0.2492869516       -1.2966023512        0.2554362957
 N          0.8065305359       -2.8889323267       -1.5228149331
 S          1.9491400218       -1.7190249629       -1.1579725837
 O          1.5010247586       -0.3945939148       -1.5156049765
 O          3.1534480406       -2.1796725858       -1.8188757700
 C          2.1761532936       -1.8610730603        0.6011288510
 C          2.2069586512       -0.7221235908        1.3794309344
 C          2.3980973089       -0.8442168960        2.7459910253
 C          2.5600385695       -2.1009903997        3.3071346843
 C          2.5354725700       -3.2366032763        2.5112608328
 C          2.3426903534       -3.1196322913        1.1443789463
 H          2.3144013087       -3.9779651678        0.4941185322
 H          2.6611321915       -4.2117461187        2.9536696654
 H          2.7023818149       -2.1929976453        4.3722881329
 H          2.4005068835        0.0401412120        3.3629450439
 H          2.0605859843        0.2374585652        0.9083854782
 H          1.0665422418       -3.4354863105       -2.3309110868
 H         -1.1668422499       -3.7584625108       -3.1079446636
 H         -3.5444737159       -3.1473137368       -2.8769796916
 H         -4.2631905387       -1.5619396494       -1.1457866246
 H         -2.5181759714       -0.7809561440        1.7150895369
 C         -4.0480702720        0.2526038587        0.6326337192
 C         -5.1915791618       -0.4850923145        1.2601001292
 C         -4.7041822283        0.7961916361        1.8649767424
 H         -5.3195214014        1.6786853577        1.7748553310
 H         -4.1425855953        0.7481521503        2.7867274616
 H         -6.1465804534       -0.4806544234        0.7567114954
 H         -4.9686984186       -1.4055899486        1.7779805602
 H         -4.2232224007        0.7762613171       -0.3000580449
