  62
        -98.93824236
 C          1.9192761301        0.9647963997        0.0910397589
 C          2.3767984099       -0.3689857404        0.0023200994
 C          3.8048058299       -0.6024396205        0.3042901192
 C          4.5749445501        0.4449903196        0.6527306786
 C          6.0495891102        0.4561901595        0.9557502183
 C          6.9147367199        0.3599428189       -0.3118113418
 C          6.4395980296       -0.6634984815       -1.3399919913
 H          5.4130023795       -0.4314214715       -1.6295996512
 H          7.0608059394       -0.5507791119       -2.2325284515
 C          6.5237263995       -2.1214200913       -0.8944423608
 H          6.2302003692       -2.7390318016       -1.7472518605
 H          7.5611214195       -2.3626000314       -0.6518260509
 C          5.6445768197       -2.5082901007        0.2963782996
 H          6.0777402799       -2.1632988904        1.2313035093
 H          5.6277945795       -3.6010337707        0.3470474900
 C          4.1909938097       -2.0573773906        0.1892714397
 H          3.7783266195       -2.4027405309       -0.7656730901
 H          3.6064291298       -2.5781260702        0.9577960400
 H          6.9143013000        1.3398633487       -0.7952098322
 H          7.9392855699        0.1311822088       -0.0139413219
 H          6.2613490704        1.4073994197        1.4489167479
 H          6.2927982502       -0.3396113403        1.6533927286
 O          4.0833401703        1.7146269797        0.7376071082
 C          2.7629173103        2.0096212597        0.4657882083
 O          2.4622503605        3.2138232198        0.5951591779
 H         -1.5093570503       -0.5557182902       -0.8186196798
 C         -1.3880480501       -0.3738399498        0.2352167401
 C         -0.4374659799        0.5216154102        0.6966147496
 C         -0.2993553096        0.7009644008        2.0715653795
 C         -1.0830011795       -0.0094124488        2.9588553599
 C         -2.0286282297       -0.9074865888        2.4941795805
 C         -2.1764745900       -1.0931103593        1.1253010806
 N         -3.1089414802       -2.0196114194        0.6346554711
 S         -4.0791423504       -1.6838009098       -0.6815674788
 O         -5.0786654106       -2.7287847697       -0.6650061082
 O         -3.2894160207       -1.5737120004       -1.8805438790
 C         -4.8401432601       -0.1189790096       -0.2906114593
 C         -5.9778967900       -0.1213330691        0.4931544909
 C         -6.5490325398        1.0887506411        0.8510816406
 C         -5.9701292597        2.2760800809        0.4287154400
 C         -4.8277294398        2.2613308904       -0.3562880403
 C         -4.2537957701        1.0536345302       -0.7216849999
 H         -3.3698362302        1.0047495598       -1.3353822900
 H         -4.3797426998        3.1851020702       -0.6863118007
 H         -6.4128677295        3.2186658111        0.7095574497
 H         -7.4403811896        1.1032580915        1.4573360207
 H         -6.4015510601       -1.0669581289        0.7902173014
 H         -3.6296684001       -2.5071016591        1.3486740814
 H         -2.6359626696       -1.4713173585        3.1858708308
 H         -0.9595594393        0.1361204417        4.0214693198
 H          0.4440644206        1.3995309108        2.4318610690
 C          0.4711797201        1.3025982898       -0.2204054109
 H          0.3569492203        2.3711133099        0.0128808387
 C          0.1896039797        1.0951374292       -1.6931521808
 C         -0.8780442303        1.8968320091       -2.3726931109
 C          0.5663219697        2.1739090988       -2.6618409413
 H          0.9667325395        1.8872338383       -3.6227015413
 H          1.0067621899        3.0730615289       -2.2555776017
 H         -1.4144141601        2.6185832994       -1.7749558511
 H         -1.4732372905        1.4188470388       -3.1370334706
 H          0.3388595095        0.0696996491       -2.0119479204
 O          1.6366209597       -1.3349446804       -0.3219856501
