  62
        -98.94051146
 C          1.2833249445        1.6991164555       -0.4096602933
 C          1.2885658389        0.3655107106       -0.8871087216
 C          2.5547100375       -0.3780310614       -0.7342377989
 C          3.6044243868        0.2055755162       -0.1329333445
 C          4.9977373629       -0.3329715893        0.0806770918
 C          5.1404942275       -1.7979644846        0.5104508961
 C          4.0205335638       -2.3157851220        1.4243230101
 H          4.4655252467       -2.7836513662        2.3047114844
 H          3.4030340784       -1.4864490096        1.7746727199
 C          3.1278841013       -3.3525893179        0.7399888096
 H          3.7602451473       -4.0437285205        0.1773254287
 H          2.6095853338       -3.9316810309        1.5085919381
 C          2.0553502990       -2.7813370387       -0.1870963259
 H          1.5795138033       -3.6248528587       -0.6953781099
 H          1.2844820211       -2.2836094312        0.4089443832
 C          2.5508638545       -1.7883801305       -1.2514399562
 H          3.5283459964       -2.0771839415       -1.6317592189
 H          1.8353487987       -1.8018539612       -2.0782082820
 H          5.2000490417       -2.4334955555       -0.3719127217
 H          6.0991139690       -1.8835895721        1.0250284591
 H          5.5655102471       -0.1739649622       -0.8409826664
 H          5.4363791117        0.3154955193        0.8430952040
 O          3.5405652951        1.4760058601        0.3575356158
 C          2.3992490029        2.2440659511        0.2301715502
 O          2.5021123367        3.3905676693        0.7138081521
 O          0.3100147807       -0.1955251937       -1.4461069580
 C          0.0862475733        2.6330629216       -0.5153159980
 C         -0.8858606249        2.3790668537        0.6110335492
 C         -1.1764850161        3.3646288459        1.5469377267
 C         -2.0625583983        3.1113786109        2.5791983660
 C         -2.6661279211        1.8726860132        2.7011448226
 C         -2.3800706966        0.8806344879        1.7695181656
 C         -1.5047210102        1.1430305024        0.7267874225
 H         -1.2724676665        0.3675174354        0.0161534039
 N         -2.9908275247       -0.3784146118        1.8431484062
 S         -2.1686712232       -1.7419530146        1.3243973425
 O         -2.8866056893       -2.8428425412        1.9383009585
 O         -0.7625172592       -1.6693890997        1.6493199404
 C         -2.4380819313       -1.8141147031       -0.4337616697
 C         -3.4677046451       -1.0983649381       -1.0099990383
 C         -3.6707814810       -1.2047526593       -2.3765739929
 C         -2.8519408248       -2.0236899215       -3.1379350441
 C         -1.8292305934       -2.7429665512       -2.5412186639
 C         -1.6200182094       -2.6400280698       -1.1759703516
 H         -0.8273267955       -3.1716223169       -0.6757008723
 H         -1.1887127365       -3.3768062125       -3.1336354952
 H         -3.0079530179       -2.0983213817       -4.2028707854
 H         -4.4637137826       -0.6424717561       -2.8435582580
 H         -4.0806260262       -0.4594661790       -0.3959147287
 H         -3.5390310108       -0.5529694843        2.6721664870
 H         -3.3498102278        1.6711338961        3.5118028166
 H         -2.2790212808        3.8832349982        3.3022816967
 H         -0.6885298117        4.3254913502        1.4716418326
 H          0.4909434751        3.6462570743       -0.3855355685
 C         -0.6175079443        2.5643725708       -1.8570380012
 C         -1.4648455456        3.7212676139       -2.2900841331
 C         -0.1584748418        3.4510846685       -2.9733269584
 H         -0.1702030670        3.0590727596       -3.9790645574
 H          0.6688665822        4.1173357276       -2.7750155003
 H         -2.3777018121        3.5167743148       -2.8275329886
 H         -1.5232934349        4.5738658038       -1.6303967531
 H         -0.9500362755        1.5685073876       -2.1174050248
