  62
        -98.93962271
 C         -2.3756573920       -1.2768335391        0.0023164495
 C         -3.1078262584       -0.5081372182        0.9348526113
 C         -3.8185339015        0.6695371161        0.4085872783
 C         -3.7167679855        0.9720625104       -0.8994396885
 C         -4.3524727526        2.0788472585       -1.7146104476
 C         -4.9616460382        3.3016186142       -1.0327349212
 C         -3.9597054664        4.1971563451       -0.3052735274
 H         -3.3150874318        4.6753118341       -1.0472707514
 H         -4.5164362401        4.9839664263        0.2084164061
 C         -3.0547541459        3.4926995889        0.7028540048
 H         -2.4026001462        2.7880869575        0.1806305660
 H         -2.4063870790        4.2486551159        1.1551689091
 C         -3.7792772755        2.7625456058        1.8328690230
 H         -3.0244169487        2.4575364236        2.5629410730
 H         -4.4663886167        3.4490000218        2.3309546402
 C         -4.5573994909        1.5009677024        1.4173336415
 H         -5.5514546930        1.7498310907        1.0542629222
 H         -4.6783252497        0.8725545002        2.3044409037
 H         -5.4226454893        3.8992326414       -1.8237764938
 H         -5.7591095243        3.0009597697       -0.3596875492
 H         -3.5791585692        2.4083089547       -2.4160188553
 H         -5.1300935689        1.5966763608       -2.3173532999
 O         -2.9845116245        0.2061467130       -1.7605050069
 C         -2.2876482161       -0.9158067446       -1.3410310754
 O         -1.6483042965       -1.4888218129       -2.2425543689
 O         -3.1660390587       -0.7907857540        2.1628795555
 C         -1.5991708637       -2.4873835394        0.4896644052
 C         -0.1240176291       -2.2451511106        0.2814221138
 C          0.7210158171       -3.1304569966       -0.3730763137
 C          2.0566091898       -2.8152195427       -0.5586487224
 C          2.5782848624       -1.6225418098       -0.0932535457
 C          1.7433058351       -0.7332448070        0.5713124932
 C          0.4087552385       -1.0529465200        0.7582680475
 H         -0.2421386227       -0.3554526240        1.2723365059
 N          2.2661908913        0.4815979258        1.0574620337
 S          3.0150704492        1.4872033053       -0.0640569131
 O          2.9130176675        2.8180201871        0.4956540468
 O          2.4701820406        1.3046017659       -1.3899806823
 C          4.7177069468        0.9693344282       -0.0205421142
 C          5.3730763349        0.9887555539        1.1952566587
 C          6.6997935654        0.5920658023        1.2457382320
 C          7.3455139848        0.1885260992        0.0862825153
 C          6.6743805097        0.1783562208       -1.1269185113
 C          5.3464293946        0.5725282362       -1.1843271133
 H          4.7807575961        0.5741123708       -2.1025461482
 H          7.1776551803       -0.1354635602       -2.0273033856
 H          8.3781109228       -0.1200608663        0.1280813157
 H          7.2250726065        0.5985032452        2.1871388812
 H          4.8350175289        1.3125674957        2.0704373553
 H          1.5966962812        1.0127671231        1.5967983897
 H          3.6155287679       -1.3713864348       -0.2437094233
 H          2.7002547285       -3.5090614623       -1.0774295022
 H          0.3320279771       -4.0613772457       -0.7509960805
 H         -1.7880901787       -2.5390144718        1.5722818215
 C         -2.1113097252       -3.7558767774       -0.1569100984
 C         -1.9541141193       -5.0721056117        0.5424643780
 C         -3.3072942083       -4.4380285348        0.4343601872
 H         -4.0329663780       -4.8760123900       -0.2342954756
 H         -3.7410211921       -3.9990214339        1.3210290094
 H         -1.7524522930       -5.9505770955       -0.0514795456
 H         -1.4695333134       -5.0699119820        1.5069759474
 H         -2.0317952892       -3.7340214040       -1.2378322205
