  62
        -98.93957093
 C          2.4650537091        0.9780703247        0.5464431646
 C          2.4087700346       -0.3312783539        0.0069470912
 C          3.5913786407       -1.1706804486        0.2533450243
 C          4.6083365812       -0.7038587584        0.9982453981
 C          5.8695649722       -1.4467077956        1.3462321306
 C          6.9538515049       -1.3744654577        0.2622024647
 C          6.6758465006       -2.2029111985       -0.9928080508
 H          7.6037922644       -2.2345568187       -1.5673165881
 H          6.4363708260       -3.2269984937       -0.7048544847
 C          5.5608310849       -1.6437401536       -1.8876620871
 H          5.3722685210       -0.5998910572       -1.6257857197
 H          5.8890024723       -1.6564607881       -2.9294727431
 C          4.2442490473       -2.4177196956       -1.8178697294
 H          3.5174510811       -1.9168970379       -2.4628384799
 H          4.3932274378       -3.4289311423       -2.2028104977
 C          3.6423058726       -2.5140618560       -0.4097086341
 H          4.2134441759       -3.2169378471        0.1962051886
 H          2.6161471622       -2.8790008800       -0.4984253726
 H          7.1001393927       -0.3282756149       -0.0167321245
 H          7.8847268413       -1.7319409889        0.7083772151
 H          5.6344645589       -2.4899204904        1.5588710742
 H          6.2606676542       -0.9856073404        2.2557837637
 O          4.5930742465        0.5360489332        1.5567747039
 C          3.5381405437        1.4051445088        1.3340677716
 O          3.6650974251        2.5128323982        1.8937731887
 O          1.4394841953       -0.7900349417       -0.6492106983
 C          1.3404150171        1.9802919998        0.3477283065
 C          0.0073780921        1.3304306274        0.6234301252
 C         -0.3042588072        0.9728977113        1.9321110502
 C         -1.5131818728        0.3756418577        2.2333580968
 C         -2.4376510443        0.1198085438        1.2358256445
 C         -2.1364015006        0.4704885021       -0.0725062778
 C         -0.9239862883        1.0789175770       -0.3708628182
 H         -0.6952072165        1.3276155130       -1.3957317433
 N         -3.0651671839        0.1960748868       -1.0911303790
 S         -4.6443763383        0.7235328126       -0.8946129912
 O         -5.1680521074        0.8649144463       -2.2360572182
 O         -4.7067442252        1.8976468362       -0.0545957340
 C         -5.4620419566       -0.6413858942       -0.0954163693
 C         -5.4495986422       -1.8695107253       -0.7270198595
 C         -6.0868151771       -2.9401975520       -0.1206435212
 C         -6.7246007545       -2.7651862223        1.0985946460
 C         -6.7316011562       -1.5248288558        1.7180004180
 C         -6.0950736614       -0.4499666776        1.1169872552
 H         -6.0709206074        0.5313941538        1.5635571294
 H         -7.2285855074       -1.3904785202        2.6653738691
 H         -7.2193596717       -3.6005870719        1.5684790194
 H         -6.0837914962       -3.9061906072       -0.5995017763
 H         -4.9464743227       -1.9633094836       -1.6749699097
 H         -2.7248042907        0.4011469627       -2.0190865252
 H         -3.3806056174       -0.3508837730        1.4616433307
 H         -1.7382233058        0.1034602727        3.2535170339
 H          0.4208479074        1.1668030009        2.7113309814
 H          1.5039521049        2.7463301485        1.1234145594
 C          1.3866336603        2.7065831458       -0.9889908303
 C          2.6988241692        3.0487825182       -1.6275242172
 C          1.7976506327        2.0359971728       -2.2640645065
 H          1.2840434155        2.3103959352       -3.1745095081
 H          2.0760234356        0.9952459253       -2.2178488722
 H          2.8056713269        4.0145560990       -2.0980485359
 H          3.5963549360        2.7008874221       -1.1368142661
 H          0.6056084248        3.4580609621       -1.0640365762
