  62
        -98.93844001
 C         -1.3906176169       -1.5314701797        0.2882225429
 C         -1.5149397946       -0.5311035490       -0.7050032383
 C         -2.4670829415        0.5556465636       -0.4140594658
 C         -3.1213626193        0.5656479789        0.7611246411
 C         -4.1639420422        1.5655617548        1.1730115832
 C         -5.5067082516        1.2347530527        0.4904655330
 C         -5.9813518820        2.2866450211       -0.5125967502
 H         -6.8047139766        1.8482453929       -1.0805885832
 H         -6.3791982657        3.1443967735        0.0337523308
 C         -4.9225035759        2.8059487471       -1.4903780939
 H         -5.4560363795        3.3245470028       -2.2898234862
 H         -4.3015357403        3.5547852359       -0.9963091991
 C         -4.0083121099        1.7452389768       -2.1173398828
 H         -3.8427480442        2.0151847916       -3.1624201115
 H         -4.4941906252        0.7692079231       -2.1154292871
 C         -2.6205993619        1.6268594526       -1.4592912859
 H         -2.3326966556        2.5970054302       -1.0440471515
 H         -1.8891293128        1.3732920762       -2.2324789477
 H         -6.2809211208        1.1139169325        1.2495523254
 H         -5.4075383527        0.2701488553       -0.0118568665
 H         -4.2642059132        1.5021150193        2.2566216816
 H         -3.8391292606        2.5698779093        0.9099406979
 O         -2.9574289912       -0.3998996469        1.7009248528
 C         -2.1016802717       -1.4655749225        1.4913474550
 O         -2.0593952802       -2.2798417840        2.4332885431
 O         -0.8753577042       -0.5215567344       -1.7908376294
 C         -0.4430836111       -2.7157167264        0.1463966562
 C          0.9639018068       -2.2143241321        0.3628044130
 C          1.5504098060       -2.2914739247        1.6220163655
 C          2.8006874730       -1.7460644497        1.8539149542
 C          3.4796848309       -1.0876612091        0.8434711372
 C          2.8937423107       -0.9944810321       -0.4117867563
 C          1.6597173527       -1.5788693714       -0.6546412845
 H          1.2096482866       -1.4836271630       -1.6300755542
 N          3.5347723589       -0.2496381942       -1.4217237101
 S          3.9722886218        1.3067204130       -0.9772593279
 O          3.8430153121        2.1088533426       -2.1738714565
 O          5.2894175804        1.2780774383       -0.3895172844
 C          2.7879710069        1.8158491001        0.2620209237
 C          3.2486073695        2.2519233967        1.4880060982
 C          2.3328543386        2.6232988769        2.4589559924
 C          0.9751928693        2.5436021363        2.1916609647
 C          0.5281254768        2.1056419920        0.9549485033
 C          1.4387589928        1.7411890558       -0.0235542921
 H          1.1012591195        1.3919557332       -0.9868593376
 H         -0.5281365848        2.0270551159        0.7486551740
 H          0.2583309436        2.8196484201        2.9489693576
 H          2.6785657181        2.9653376979        3.4210767098
 H          4.3126127623        2.2845175742        1.6575659741
 H          3.0108446537       -0.2307041361       -2.2858146479
 H          4.4424966168       -0.6316535428        1.0099030350
 H          3.2450974998       -1.8203410108        2.8345265355
 H          1.0049380353       -2.7665814050        2.4248014748
 H         -0.6908711951       -3.3954998397        0.9716149232
 C         -0.6219327842       -3.4594645108       -1.1609792229
 C         -0.0343984154       -4.8305036470       -1.3010655254
 C         -1.5197213193       -4.6578872992       -1.2028669953
 H         -2.1187830373       -4.8222377902       -2.0860885228
 H         -2.0082405625       -4.9502010044       -0.2846170353
 H          0.3891174949       -5.1158835721       -2.2518292388
 H          0.4856676750       -5.2393410740       -0.4479485441
 H         -0.6192653221       -2.8186982104       -2.0327406959
