  62
        -98.93784529
 C         -1.7925882187       -1.6114739420        0.1220387598
 C         -1.7014482169       -0.2650299415       -0.2937716380
 C         -2.9428450626        0.5307478334       -0.2302885868
 C         -4.0781729663       -0.0616689812        0.1818399545
 C         -5.4545369531        0.5349664346        0.3356447593
 C         -5.9400438263        1.4562883115       -0.7939413094
 C         -6.0108046247        2.9299031729       -0.3892101448
 H         -6.7351839013        3.4341808183       -1.0327443915
 H         -6.3872401978        2.9911124804        0.6340570294
 C         -4.6928577307        3.6959456404       -0.4893189131
 H         -4.4451830657        3.8519878474       -1.5415612417
 H         -4.8491733260        4.6808502237       -0.0430203992
 C         -3.4962876647        3.0317259622        0.1946931944
 H         -3.7932020790        2.6024731872        1.1509330366
 H         -2.7616264573        3.8106153978        0.4090924829
 C         -2.8098378979        1.9633925841       -0.6696863214
 H         -3.1484065355        2.0479970506       -1.7063602227
 H         -1.7303622341        2.1431291973       -0.6929587999
 H         -5.3072520670        1.3331312109       -1.6714752926
 H         -6.9449423734        1.1363370742       -1.0744070050
 H         -6.1249209797       -0.3225428056        0.4283834157
 H         -5.4963263545        1.0657985051        1.2901410117
 O         -4.1184453879       -1.3702676759        0.5671998815
 C         -2.9923530653       -2.1712044768        0.5574361628
 O         -3.1822194267       -3.3384540258        0.9545314881
 H          2.0725948654       -1.9548091072       -0.5982182623
 C          1.8219113184       -1.6739141633        0.4104693903
 C          0.5442389169       -1.8715613294        0.9085296909
 C          0.2738739816       -1.4897144670        2.2210823120
 C          1.2517702302       -0.9120841421        3.0064359850
 C          2.5207143645       -0.6942830461        2.4970250726
 C          2.8033325056       -1.0777997320        1.1927296328
 N          4.0895620771       -0.8915513107        0.6500958875
 S          4.2711925668        0.0118707777       -0.7490714754
 O          3.5396869605       -0.5986704524       -1.8274860701
 O          5.7029928005        0.1202746703       -0.9292969084
 C          3.6054276583        1.6167528076       -0.3427676143
 C          4.4893892054        2.6249127104       -0.0070869612
 C          3.9905566444        3.8612961048        0.3678504425
 C          2.6194115050        4.0651429573        0.4119081582
 C          1.7476951941        3.0410412628        0.0775875784
 C          2.2377779081        1.8014727589       -0.3053392111
 H          1.5661436364        1.0001042297       -0.5704543562
 H          0.6797750649        3.1884263419        0.1116746777
 H          2.2275304328        5.0259292013        0.7068212600
 H          4.6688169490        4.6587021519        0.6258651548
 H          5.5468288156        2.4208178738       -0.0581902463
 H          4.7740168710       -0.5866684276        1.3285517069
 H          3.2854902271       -0.2356927178        3.1055373722
 H          1.0243631067       -0.6215611448        4.0209921845
 H         -0.7206903814       -1.6521803643        2.6146914778
 C         -0.5606805223       -2.4977622198        0.0934422426
 H         -0.8530136727       -3.4402023910        0.5796298715
 C         -0.1651417022       -2.7940758527       -1.3381002052
 C          0.5500919868       -4.0670326872       -1.6732364258
 C         -0.8807182554       -3.8817992651       -2.0785787864
 H         -1.1072219126       -3.7321856152       -3.1236503379
 H         -1.6414012698       -4.4290802508       -1.5405279912
 H          0.7628162079       -4.7491105908       -0.8638535308
 H          1.3102900545       -4.0421641197       -2.4397132137
 H          0.0985774341       -1.9022797824       -1.8961840349
 O         -0.6298897748        0.2598607716       -0.6950967033
