  62
        -98.93394135
 C         -2.4702670227       -1.3111303140       -0.1692587658
 C         -2.1888195818       -0.0634857283       -0.7732709976
 C         -3.2982984982        0.9085526758       -0.8215457948
 C         -4.4932749365        0.5803529969       -0.2967067491
 C         -5.7964459130        1.3490874018       -0.2301081241
 C         -5.8268973338        2.8559836156       -0.4734591530
 C         -5.1016941060        3.6920925688        0.5802762352
 H         -5.6570073842        3.6273245217        1.5192230638
 H         -5.1163148557        4.7348654992        0.2558984235
 C         -3.6589023897        3.2848198252        0.8706528631
 H         -3.6384216994        2.2834719432        1.3060359063
 H         -3.2628023153        3.9700030508        1.6251257311
 C         -2.7137983260        3.3210574292       -0.3292120538
 H         -1.6970332436        3.1692963455        0.0452073506
 H         -2.7524150161        4.3056259649       -0.7995861168
 C         -2.9685713801        2.2514602018       -1.4060699104
 H         -2.0420311734        2.1202375309       -1.9733434623
 H         -3.7390651289        2.5665224239       -2.1058942582
 H         -6.8797270776        3.1506718994       -0.4595044318
 H         -5.4487512369        3.0857729791       -1.4651322998
 H         -6.4638627892        0.8687401275       -0.9539756445
 H         -6.2127205941        1.1384216628        0.7599222343
 O         -4.7190387129       -0.6438982828        0.2646716662
 C         -3.7268843234       -1.6016142345        0.3604628394
 O         -4.0826401825       -2.6532879037        0.9295157266
 H          1.2050257792       -1.4938281826       -0.4984001710
 C          0.9118169352       -1.4288498176        0.5351470859
 C         -0.3487646532       -1.8378311774        0.9396413458
 C         -0.6951131888       -1.7193178079        2.2841803072
 C          0.1971467337       -1.1971718551        3.1993477265
 C          1.4487757688       -0.7719623450        2.7888113782
 C          1.8056909175       -0.8879299158        1.4509175817
 N          3.0904508186       -0.4960813186        1.0260871625
 S          3.2460392099        0.4194542172       -0.3879678841
 O          2.4608658598        1.6295019216       -0.2879551653
 O          3.0123621428       -0.4263192206       -1.5291675815
 C          4.9835605591        0.8167985924       -0.2928840410
 C          5.3770030385        2.0711686905        0.1325107004
 C          6.7307599503        2.3555172532        0.2228177288
 C          7.6632688261        1.3844993187       -0.1089666668
 C          7.2533923087        0.1296652671       -0.5350983812
 C          5.9015868793       -0.1600076712       -0.6290139326
 H          5.5357488579       -1.1165371658       -0.9636692455
 H          7.9813907790       -0.6218922420       -0.7947282694
 H          8.7160177649        1.6079347561       -0.0377624790
 H          7.0517753511        3.3312019635        0.5504902916
 H          4.6159132845        2.7966219486        0.3716133642
 H          3.6028602362       -0.0388759027        1.7702163664
 H          2.1447915666       -0.3538044284        3.5006854623
 H         -0.0845708243       -1.1114867965        4.2381370758
 H         -1.6817585326       -2.0360964804        2.5952281460
 C         -1.3879309434       -2.3681098067       -0.0188293576
 H         -1.8765078102       -3.2315778793        0.4545248983
 C         -0.8314756476       -2.7997346714       -1.3577198750
 C         -0.0990114697       -4.1024529454       -1.4630482174
 C         -1.4610873838       -3.9568758836       -2.0707346213
 H         -1.5458979759       -3.9139204842       -3.1462160986
 H         -2.2928418382       -4.4473014977       -1.5858757600
 H         -0.0055331787       -4.6944224386       -0.5650447351
 H          0.7557558508       -4.1585649558       -2.1197569461
 H         -0.4839501580       -1.9716477051       -1.9640277639
 O         -1.0684198749        0.2366279473       -1.2635167348
