  62
        -98.93520576
 C          2.2019986745        1.1407322234        0.6380536501
 C          2.2183753378        0.2228792519       -0.4391619431
 C          3.1071176892       -0.9482961860       -0.2923468815
 C          3.8087749303       -1.1154125168        0.8430362451
 C          4.7571007200       -2.2119301856        1.2818607311
 C          5.3096150672       -3.2172163100        0.2747891174
 C          6.2657663173       -2.6264069098       -0.7609934940
 H          7.1893819469       -2.3354305167       -0.2543855288
 H          6.5137007872       -3.4090001038       -1.4812678142
 C          5.7493213921       -1.4032825583       -1.5145876282
 H          5.5917413078       -0.5805644490       -0.8142139592
 H          6.5292945129       -1.0866870323       -2.2121967373
 C          4.4691800167       -1.6228758731       -2.3185449607
 H          4.3047720270       -0.7297386213       -2.9274020070
 H          4.6002948189       -2.4687041008       -2.9961308179
 C          3.1961984311       -1.8550276515       -1.4859063565
 H          2.3310068430       -1.6205747727       -2.1136380649
 H          3.1032661421       -2.8959608033       -1.1846791408
 H          4.4964348020       -3.7459905650       -0.2139825041
 H          5.8671448143       -3.9598502740        0.8521157118
 H          5.5922652801       -1.7024937278        1.7733071378
 H          4.2289716190       -2.7638538121        2.0675036298
 O          3.7020718136       -0.2390952431        1.8859550169
 C          2.9094652304        0.8925618859        1.8147987003
 O          2.9103742319        1.5819081622        2.8546197844
 H         -0.3001999972        0.6487577222        1.7109925270
 C         -0.7605191410        1.1075456790        0.8430916532
 C         -0.0427278313        2.0564567240        0.1247727754
 C         -0.6355804388        2.6280185550       -0.9924737295
 C         -1.9102567053        2.2498353813       -1.3771569080
 C         -2.6208313872        1.3058682455       -0.6591516943
 C         -2.0350027149        0.7237141336        0.4574668752
 N         -2.7515148608       -0.2290910423        1.2040540092
 S         -3.4774956383       -1.5045285109        0.3873882411
 O         -3.5922391383       -2.5593028643        1.3722427926
 O         -2.7737626651       -1.8359959740       -0.8294543711
 C         -5.1054626838       -0.8897277669        0.0088791479
 C         -5.5585207503       -0.8965930201       -1.2957024272
 C         -6.8318925184       -0.4191503418       -1.5652115219
 C         -7.6252253600        0.0529701648       -0.5308887689
 C         -7.1563482845        0.0500670206        0.7745191964
 C         -5.8850298824       -0.4267571417        1.0508319480
 H         -5.4842090436       -0.4499856977        2.0504112920
 H         -7.7761786045        0.4178340003        1.5762791622
 H         -8.6149382312        0.4252111563       -0.7433982830
 H         -7.1980231238       -0.4169066256       -2.5793206746
 H         -4.9034635322       -1.2678617588       -2.0679127940
 H         -2.2479693753       -0.5713211140        2.0098163303
 H         -3.6110038798        1.0057061042       -0.9607115989
 H         -2.3564562558        2.6953569448       -2.2532103124
 H         -0.0894934982        3.3477668416       -1.5795028877
 C          1.3454241454        2.3953798811        0.6108606101
 H          1.2621717744        2.7012640167        1.6672719272
 C          1.9773151658        3.5660416586       -0.1271754777
 C          3.4670890056        3.7136093075       -0.2030346114
 C          2.6807187972        3.4052344473       -1.4398445296
 H          2.5671938013        4.1840248912       -2.1798520698
 H          2.7399677927        2.4126495131       -1.8566950594
 H          3.8909669312        4.7003791664       -0.0921262390
 H          4.0701385724        2.9290805575        0.2312036441
 H          1.4132286043        4.4826815176        0.0147507696
 O          1.5297987488        0.3569545606       -1.4827707649
