  62
        -98.94081249
 C         -2.5910006309       -1.3205803741        0.2231948923
 C         -2.4027860618       -0.2256603931       -0.6580637314
 C         -3.5230369297        0.7271996650       -0.7453311225
 C         -4.6386775015        0.5130199998       -0.0265420253
 C         -5.8289702803        1.4259278847        0.0107229780
 C         -5.7041718305        2.4527337891        1.1448905773
 C         -4.3558864174        3.1725517124        1.1810801256
 H         -3.5712091495        2.4526523408        1.4256750945
 H         -4.3945870067        3.8948675389        1.9992961458
 C         -3.9872585511        3.8965182049       -0.1213909889
 H         -3.5988260466        4.8866563720        0.1261161156
 H         -4.8801900851        4.0417788698       -0.7306006229
 C         -2.9138810468        3.1954977706       -0.9566603537
 H         -2.0484098051        2.9661593158       -0.3287259462
 H         -2.5767908142        3.8910136704       -1.7302875027
 C         -3.3523716437        1.9058421880       -1.6620245869
 H         -2.5604382346        1.6289987840       -2.3645621041
 H         -4.2667961582        2.0895241065       -2.2301757298
 H         -5.8410197218        1.9351166833        2.0970740624
 H         -6.5063544045        3.1849746736        1.0373594874
 H         -6.7215035822        0.8204836597        0.1773535999
 H         -5.9202765135        1.9350273041       -0.9466947781
 O         -4.7879287045       -0.5530695701        0.7995703879
 C         -3.7673063124       -1.4734020448        0.9648649497
 O         -4.0245169766       -2.3737999983        1.7882184484
 O         -1.3695872810       -0.0380840082       -1.3519795056
 C         -1.5141052294       -2.3654620022        0.4728369446
 C         -0.2013652920       -1.6798575401        0.7558909114
 C          0.0186994983       -1.1215455410        2.0113157264
 C          1.1932366958       -0.4466545724        2.2863026730
 C          2.1661024743       -0.3037446142        1.3122096892
 C          1.9450236192       -0.8372410870        0.0499836203
 C          0.7758320845       -1.5387570468       -0.2153582308
 H          0.6072989582       -1.9385980083       -1.2030387767
 N          2.9176217111       -0.6892342003       -0.9515519022
 S          3.7060333714        0.7805475266       -1.1224803872
 O          2.8942559621        1.8951925842       -0.6935680266
 O          4.1589535478        0.8040329901       -2.4967099657
 C          5.1254123325        0.6136892230       -0.0573338923
 C          5.4133803535        1.5985181271        0.8669869624
 C          6.5319459925        1.4559268261        1.6735155112
 C          7.3397919391        0.3371613677        1.5412159635
 C          7.0386371514       -0.6421019147        0.6063074967
 C          5.9225734504       -0.5048033554       -0.2032715357
 H          5.6561458172       -1.2409436545       -0.9430478495
 H          7.6692165150       -1.5108314617        0.5062739197
 H          8.2093120236        0.2281499356        2.1700198974
 H          6.7674731080        2.2168190615        2.4002607056
 H          4.7540323918        2.4491975953        0.9382332919
 H          2.6260108529       -1.0459902258       -1.8501504976
 H          3.0768282388        0.2357052728        1.5148268507
 H          1.3527149190       -0.0225344800        3.2661657717
 H         -0.7494726300       -1.2156916052        2.7670467896
 H         -1.8317888898       -2.8810782032        1.3930238122
 C         -1.4043260463       -3.4355300109       -0.6034935969
 C         -2.6397017128       -4.0097525311       -1.2287198836
 C         -1.6988222856       -3.1830407908       -2.0501928808
 H         -1.0895574685       -3.6850818857       -2.7881767418
 H         -2.0027392786       -2.1900986120       -2.3412213189
 H         -2.6824813229       -5.0737819889       -1.4055860564
 H         -3.5868118308       -3.5748093584       -0.9437009936
 H         -0.6029602010       -4.1360592363       -0.3879798240
