  62
        -98.94015241
 C         -1.9893834237       -1.4904068645       -0.0367923954
 C         -1.7780721244       -0.2189283482       -0.6176334063
 C         -2.9730814731        0.6250754228       -0.7889001045
 C         -4.1746808584        0.1511510754       -0.4172357664
 C         -5.5210521177        0.8201813918       -0.5360164413
 C         -5.6100712989        2.3014148473       -0.1407425359
 C         -4.6493990850        2.7367520137        0.9756204960
 H         -5.2160257967        3.2676820862        1.7428986174
 H         -4.2027618801        1.8608791852        1.4492308072
 C         -3.5425795424        3.6702809703        0.4796005428
 H         -3.1406252935        4.2218903645        1.3327785791
 H         -3.9829233765        4.4003139827       -0.2031075603
 C         -2.3634730932        2.9865971981       -0.2124832784
 H         -1.7258488850        3.7699482284       -0.6300333968
 H         -1.7676348514        2.4393887523        0.5234258174
 C         -2.7320552862        2.0031365101       -1.3352335647
 H         -3.5818909784        2.3618531807       -1.9109906059
 H         -1.8707051624        1.9158274989       -2.0034609157
 H         -5.4374994746        2.9229826230       -1.0183400098
 H         -6.6392679652        2.4823892075        0.1737714761
 H         -6.1874621537        0.2308270223        0.0982828388
 H         -5.8703210831        0.7026492736       -1.5659006416
 O         -4.3335882940       -1.0905799636        0.1234783599
 C         -3.2566471628       -1.9330070382        0.3374041162
 O         -3.5513110801       -3.0259403994        0.8623590578
 O         -0.6477793430        0.1954614759       -0.9819973634
 C         -0.8124061406       -2.4213116355        0.1915741911
 C          0.2367941289       -1.7273654928        1.0255606257
 C         -0.1457666595       -1.1433617582        2.2315340544
 C          0.7769538927       -0.4956191157        3.0288092224
 C          2.1019796620       -0.4083175741        2.6367030588
 C          2.4960853987       -0.9927478160        1.4401594077
 C          1.5681963825       -1.6584484192        0.6484308520
 H          1.9049478437       -2.0978197244       -0.2750120919
 N          3.8402913812       -0.9432316113        1.0254547502
 S          4.2314184241       -0.3090625213       -0.4750618543
 O          3.5966625972       -1.0765996976       -1.5139840613
 O          5.6782351172       -0.2847298244       -0.4923185571
 C          3.6130419975        1.3638559181       -0.4386949539
 C          4.5043555406        2.3869906633       -0.1754516143
 C          4.0317607519        3.6859988086       -0.0888869897
 C          2.6780025968        3.9385509804       -0.2547788490
 C          1.7978340490        2.8995742540       -0.5119513730
 C          2.2629158337        1.5966746686       -0.6068168820
 H          1.5834503566        0.7837826309       -0.8081580987
 H          0.7424400967        3.0804783112       -0.6391198746
 H          2.3066909430        4.9488899864       -0.1837984884
 H          4.7167914706        4.4946425463        0.1095398684
 H          5.5478471261        2.1434707534       -0.0559141768
 H          4.4640090422       -0.5546303813        1.7192576294
 H          2.8243106680        0.1038357806        3.2542696212
 H          0.4628568994       -0.0478963790        3.9596391537
 H         -1.1833547447       -1.2048868029        2.5323810758
 H         -1.2036799281       -3.2709203339        0.7705793643
 C         -0.2901383167       -2.9383154388       -1.1325273818
 C          0.3895427915       -4.2714635792       -1.2041019969
 C         -0.9814610730       -4.0966481150       -1.7834751651
 H         -1.0928367059       -4.0942422219       -2.8574584867
 H         -1.8197762797       -4.5313679751       -1.2581753715
 H          1.2239975742       -4.3864958152       -1.8797654058
 H          0.4842768769       -4.8343049819       -0.2876291405
 H          0.0743341060       -2.1484006488       -1.7801234985
