  62
        -98.93833448
 C         -2.2512541191       -0.9943661709        0.3870269219
 C         -2.4826535111       -0.1133602930       -0.6944425202
 C         -3.3502859477        1.0479776848       -0.4211212676
 C         -3.8507810611        1.2247963429        0.8158434497
 C         -4.7211193081        2.3223143097        1.3926091432
 C         -5.4496557892        3.3039933124        0.4783786264
 C         -6.5628667121        2.6857524218       -0.3668696608
 H         -7.3823644244        2.3972660310        0.2962226270
 H         -6.9401310909        3.4520413433       -1.0475068113
 C         -6.1697470975        1.4522169572       -1.1758954752
 H         -7.0550317927        1.1151895737       -1.7219432791
 H         -5.8840982438        0.6448079448       -0.4985046592
 C         -5.0504229330        1.6664371258       -2.1928616845
 H         -4.9820343231        0.7610556442       -2.8017410232
 H         -5.3084327725        2.4955210592       -2.8544984934
 C         -3.6560417133        1.9290316065       -1.5979531826
 H         -2.9111121758        1.6862467440       -2.3614135099
 H         -3.5273647538        2.9769713394       -1.3381511020
 H         -4.7389055462        3.8297919618       -0.1522402151
 H         -5.9081250147        4.0527444630        1.1301817042
 H         -5.4534743246        1.8161456551        2.0296965949
 H         -4.0718777621        2.8931934288        2.0659816319
 O         -3.5637431761        0.3649713029        1.8391564478
 C         -2.7733392626       -0.7554329844        1.6554179729
 O         -2.6059755949       -1.4424775010        2.6848927840
 H          0.1121675192       -0.3056591531        1.2492318559
 C          0.6372642230       -0.8002817721        0.4400307411
 C          0.0028720852       -1.8303035661       -0.2439293295
 C          0.6942323322       -2.4683489714       -1.2650347245
 C          1.9756851120       -2.0664213398       -1.6011071597
 C          2.5947701681       -1.0284100570       -0.9302118158
 C          1.9184001845       -0.3922974403        0.1028407474
 N          2.5356170007        0.6704438340        0.7870604263
 S          4.0794658005        0.4220242623        1.4013049566
 O          4.2993962545       -0.9668860294        1.7329118262
 O          4.2115933023        1.3700839771        2.4862302295
 C          5.1545316580        0.9115029720        0.0693892747
 C          6.1172371272        0.0375842157       -0.3965131975
 C          6.9488333388        0.4454284245       -1.4280093913
 C          6.8043209719        1.7128929607       -1.9710550067
 C          5.8340087544        2.5793992965       -1.4897618374
 C          5.0001812762        2.1785185904       -0.4581997917
 H          4.2358465256        2.8212571888       -0.0540593296
 H          5.7241946799        3.5641367910       -1.9147000676
 H          7.4515664039        2.0277629858       -2.7743160669
 H          7.7036768325       -0.2264284526       -1.8036839183
 H          6.1881773087       -0.9402551663        0.0524936771
 H          1.9440065311        1.0983576031        1.4846365702
 H          3.5895219882       -0.7088397743       -1.1940731811
 H          2.4984772570       -2.5671188791       -2.4015860600
 H          0.2286044454       -3.2784300698       -1.8015418058
 C         -1.3881413606       -2.2266943129        0.1907359533
 H         -1.3074056565       -2.7010236831        1.1805952803
 C         -2.0672891486       -3.1924695973       -0.7582123110
 C         -1.8449562914       -4.6680269847       -0.6237326567
 C         -3.1617226344       -4.0697059321       -0.2319353981
 H         -4.0216250934       -4.2547196842       -0.8580251363
 H         -3.3973337510       -3.9902458693        0.8198215657
 H         -1.8041081329       -5.2678803728       -1.5203557284
 H         -1.1883634511       -5.0055476566        0.1640823364
 H         -2.1918050579       -2.7789741778       -1.7522292906
 O         -1.9853358132       -0.2795399624       -1.8377325724
