  62
        -98.94006704
 C          2.4317538338        0.9708503393        0.0342376886
 C          3.6886364821        0.9006685671        0.6898163584
 C          4.7073107396        0.0508454301        0.0604125348
 C          4.3994912037       -0.6156224783       -1.0667394496
 C          5.3199486685       -1.5584812153       -1.7849392389
 C          5.1409120744       -2.9986076199       -1.2844860729
 C          5.1671272446       -3.1313610479        0.2382128425
 H          4.2944880993       -2.6233172491        0.6552888276
 H          5.0631188387       -4.1927156539        0.4737377709
 C          6.4380567818       -2.5827685505        0.9018302190
 H          7.2308829486       -2.4841229129        0.1594219331
 H          6.7813230778       -3.3017756484        1.6486818909
 C          6.2513645308       -1.2468882498        1.6236424650
 H          5.3973500341       -1.3130894466        2.3024779096
 H          7.1398139905       -1.0627426827        2.2335781265
 C          6.0551389450       -0.0221319481        0.7212185532
 H          6.1295863161        0.8691237487        1.3512664149
 H          6.8520303457        0.0171222318       -0.0243782907
 H          5.9298620841       -3.6151649973       -1.7190145063
 H          4.1795473923       -3.3727798069       -1.6438261998
 H          5.0867176872       -1.5218799697       -2.8504417100
 H          6.3488695961       -1.2362174915       -1.6368621345
 O          3.1816958447       -0.5401913568       -1.6574222323
 C          2.1614957633        0.2408027936       -1.1247383153
 O          1.1035237174        0.1885993804       -1.7772870095
 H         -0.9625060171        2.0639765979       -0.7722297728
 C         -1.0216632104        1.3040078652       -0.0084947779
 C          0.0733659115        1.0610915530        0.8047710873
 C         -0.0201029709        0.0566927371        1.7639215463
 C         -1.1775948169       -0.6855783527        1.8999142143
 C         -2.2652178610       -0.4468035985        1.0781739971
 C         -2.1819448250        0.5505213888        0.1166210383
 N         -3.2718842228        0.7801300010       -0.7374530585
 S         -4.8075823125        0.9199819770       -0.0866056128
 O         -5.5598660828        1.6920613561       -1.0516959692
 O         -4.7668085139        1.4433928576        1.2596278914
 C         -5.4265072424       -0.7494987091       -0.0731858299
 C         -5.9358672405       -1.2861275737        1.0929483431
 C         -6.4253996911       -2.5830047305        1.0762678993
 C         -6.3981977245       -3.3156333869       -0.1003888919
 C         -5.8848917961       -2.7613726053       -1.2636669438
 C         -5.3948499200       -1.4653089887       -1.2538554889
 H         -4.9892124845       -0.9990339386       -2.1363087540
 H         -5.8642833046       -3.3344695753       -2.1766733832
 H         -6.7788330683       -4.3247924810       -0.1113705854
 H         -6.8244674591       -3.0159299175        1.9794876959
 H         -5.9314440062       -0.6810710519        1.9856299279
 H         -3.1002797739        1.4767227517       -1.4470620602
 H         -3.1696791330       -1.0251680808        1.1739104747
 H         -1.2341993929       -1.4608198502        2.6490161318
 H          0.8323565113       -0.1374478830        2.4007436349
 C          1.3608516559        1.8340982615        0.6786444342
 H          1.7423450787        2.0224213522        1.6958284958
 C          1.1763308373        3.1996438501        0.0334826161
 C          2.3511310496        3.9463185357       -0.5218960647
 C          1.2874388154        3.4319274788       -1.4425267727
 H          0.6164752827        4.1468495853       -1.8972295946
 H          1.5129946353        2.5858128141       -2.0721593193
 H          2.4150781865        5.0100092319       -0.3488595339
 H          3.3071599576        3.4434106688       -0.5159036554
 H          0.4347717403        3.7927141774        0.5615950031
 O          3.9458877892        1.5208639373        1.7561098552
