  62
        -98.94030135
 C         -1.7801902695       -0.8203205300        0.1895324603
 C         -3.0764279095       -1.1369191502        0.6558263601
 C         -4.0396733997       -0.0241184204        0.7154498397
 C         -3.6385297599        1.2062889396        0.3509342096
 C         -4.4734489601        2.4549778695        0.2864869493
 C         -5.0360862699        2.6567963891       -1.1307045009
 C         -6.3627648997        1.9489987488       -1.4034802010
 H         -7.1593591099        2.4563630988       -0.8551826212
 H         -6.5771137996        2.0600543186       -2.4689600610
 C         -6.3976253595        0.4600047989       -1.0483678107
 H         -7.2125486093        0.0012515086       -1.6118809808
 H         -5.4720513894       -0.0186180610       -1.3737301905
 C         -6.6235851997        0.2010990991        0.4487599293
 H         -7.4417601796       -0.5115359611        0.5716205692
 H         -6.9467987000        1.1271110791        0.9242025791
 C         -5.4174403897       -0.3745232806        1.2073263296
 H         -5.4937890200       -0.0945898404        2.2632733195
 H         -5.4533959295       -1.4678715006        1.1715224597
 H         -4.2816699597        2.3123084091       -1.8427894507
 H         -5.1822171501        3.7252713291       -1.3015548811
 H         -3.8075846503        3.2886961696        0.5182261493
 H         -5.2692023902        2.4251229594        1.0247821391
 O         -2.3733100399        1.4709927898       -0.0764699902
 C         -1.4177504597        0.4746094300       -0.1771614499
 O         -0.3100146497        0.8630957601       -0.5917505398
 O         -3.4158561293       -2.2996074802        1.0066103702
 C         -0.7452917893       -1.9246952499        0.0786750406
 C          0.4740464105       -1.5790546795        0.8961479008
 C          0.3084630002       -1.2413687593        2.2379301607
 C          1.3951608700       -0.9152615990        3.0247685708
 C          2.6719426001       -0.9111699688        2.4890211210
 C          2.8497975704       -1.2540396690        1.1550857811
 C          1.7556279506       -1.5964182193        0.3700889910
 H          1.9263023309       -1.8547617495       -0.6609573489
 N          4.1383348605       -1.2921914789        0.5910470014
 S          4.4844518706       -0.4358273590       -0.8049241287
 O          3.6307581309       -0.8738774894       -1.8775787088
 O          5.9054253507       -0.6243313788       -1.0019520885
 C          4.1700059802        1.2696056910       -0.3864941891
 C          2.8702064401        1.7312762608       -0.3323022294
 C          2.6485574698        3.0452357508        0.0522042804
 C          3.7164375396        3.8682547010        0.3733122504
 C          5.0160122097        3.3870749413        0.3137779407
 C          5.2462810900        2.0748778212       -0.0644084590
 H          6.2386339501        1.6583854114       -0.1286180588
 H          5.8464230495        4.0284630615        0.5617337308
 H          3.5338883593        4.8892195310        0.6700499303
 H          1.6328465997        3.4055579906        0.0955895502
 H          2.0436003103        1.0858992006       -0.5847729294
 H          4.8791117604       -1.1441714986        1.2623747815
 H          3.5228106000       -0.6501871686        3.0999903111
 H          1.2489355498       -0.6555074188        4.0623496208
 H         -0.6900981598       -1.2373638194        2.6537530105
 H         -1.2164994992       -2.8140055799        0.5233457407
 C         -0.4399034790       -2.2149466000       -1.3757288893
 C          0.0219284414       -3.5785218800       -1.7913225490
 C         -1.3573493287       -3.1133698403       -2.1473257693
 H         -1.5718932985       -2.8703733906       -3.1773334694
 H         -2.1948238187       -3.5409331804       -1.6153475394
 H          0.7603989715       -3.6525614700       -2.5756625288
 H          0.1210622914       -4.3285562999       -1.0211754088
 H         -0.0261348390       -1.3589298301       -1.8985829293
