  62
        -98.93805375
 C         -1.6789280405       -1.4212020195       -0.0512092159
 C         -2.8419805056       -1.0567815134        0.6655575954
 C         -3.6171392407        0.0671323707        0.1170674025
 C         -3.1835729653        0.6778056470       -1.0009232307
 C         -3.8129153192        1.8870694131       -1.6326399515
 C         -3.4384237796        3.1543076608       -0.8375293452
 C         -4.6208913694        3.8424173645       -0.1550824406
 H         -4.2134224684        4.5819070748        0.5378539219
 H         -5.2004029641        4.3811894004       -0.9076318787
 C         -5.5810575326        2.9221259658        0.6049385764
 H         -6.2600472203        2.4379559678       -0.0985291395
 H         -6.1967141710        3.5612680531        1.2414399331
 C         -4.9271311301        1.8426664772        1.4773184962
 H         -3.9192881629        2.1412849682        1.7678254157
 H         -5.5077152181        1.7528360655        2.3978114793
 C         -4.8822394602        0.4416711081        0.8386298415
 H         -4.9824276565       -0.3051721214        1.6320212487
 H         -5.7355095861        0.3211814906        0.1653424520
 H         -2.6932171254        2.8819415577       -0.0865417941
 H         -2.9617526779        3.8756633636       -1.5030932167
 H         -4.8930060915        1.7631713922       -1.6675741346
 H         -3.4360796095        1.9543558349       -2.6533309323
 O         -2.0534932232        0.3056602593       -1.6559635961
 C         -1.2761931320       -0.7566837368       -1.2096656807
 O         -0.2787722046       -0.9927045403       -1.9125468713
 O         -3.2132918652       -1.6412726158        1.7200991891
 C         -0.8300181693       -2.5724938200        0.4541944643
 C          0.5944292601       -2.1313495448        0.6886174036
 C          1.6919007639       -2.9297127328        0.3913738760
 C          2.9781207075       -2.4767523937        0.6310504050
 C          3.2012904969       -1.2197364455        1.1610940192
 C          2.1109386864       -0.4114208958        1.4571039673
 C          0.8238216998       -0.8747030100        1.2343136385
 H         -0.0207476487       -0.2399469299        1.4740633802
 N          2.3252866346        0.8820782538        1.9633582935
 S          3.5043910820        1.8136714595        1.2223096528
 O          4.7844597617        1.5278204433        1.8224544020
 O          3.0435931463        3.1788477212        1.3560030261
 C          3.5258465297        1.3184865545       -0.4919851451
 C          2.3416012451        1.3343333477       -1.2011213523
 C          2.3444564033        0.9238701666       -2.5236377347
 C          3.5301089369        0.5147812981       -3.1143946395
 C          4.7143105612        0.5163685780       -2.3937204562
 C          4.7143715246        0.9170660386       -1.0675297682
 H          5.6084370682        0.9206595439       -0.4652814750
 H          5.6342071438        0.1989446368       -2.8578089777
 H          3.5262987476        0.1898516490       -4.1428178878
 H          1.4160943285        0.8985804823       -3.0709092652
 H          1.4288364538        1.6520060560       -0.7216173867
 H          1.4779742498        1.4143895381        2.0954699238
 H          4.1961019214       -0.8503323197        1.3511493923
 H          3.8196150237       -3.1097684156        0.3955697477
 H          1.5403314188       -3.9085333932       -0.0325305979
 H         -1.2654859787       -2.8542108058        1.4250334964
 C         -0.9422674619       -3.7543004463       -0.4877649932
 C         -0.8661190492       -5.1562843593        0.0367106718
 C         -2.1761052770       -4.6029963282       -0.4350364355
 H         -2.5907330247       -4.9699293049       -1.3619227239
 H         -2.9212573092       -4.3466348976        0.3040731522
 H         -0.3822878950       -5.9078626197       -0.5687667334
 H         -0.7266737616       -5.2873636652        1.0991761517
 H         -0.5188455038       -3.5469516112       -1.4641507972
