  62
        -98.94006318
 C         -2.4549409736       -0.9891129304        0.0174037646
 C         -2.5205311285        0.4076195962        0.2386458958
 C         -3.8452091564        0.9357208466        0.5973002313
 C         -4.8857930681        0.0897879112        0.7070362176
 C         -6.2980671281        0.5018584874        1.0038125471
 C         -7.0796133018        0.7756587841       -0.2889562125
 C         -6.3498822011        1.6927868113       -1.2704498337
 H         -5.4532720020        1.1852931760       -1.6338825817
 H         -7.0074238146        1.8376102640       -2.1303817135
 C         -5.9575648499        3.0590674304       -0.6910092302
 H         -6.2094277173        3.8335953860       -1.4184478838
 H         -6.5377790690        3.2599126184        0.2102473292
 C         -4.4678779129        3.2102040310       -0.3775715251
 H         -4.2663222159        4.2668297952       -0.1821183186
 H         -3.8775613744        2.9214503038       -1.2510346868
 C         -3.9574289511        2.4159543530        0.8313133834
 H         -2.9422851818        2.7599611760        1.0507017281
 H         -4.5860331684        2.6226562219        1.6997870280
 H         -7.2681420440       -0.1777172514       -0.7877929853
 H         -8.0420171801        1.2166709021       -0.0232622708
 H         -6.7858180096       -0.3085433731        1.5479261845
 H         -6.2868829627        1.3921777999        1.6294081952
 O         -4.7767551162       -1.2494712988        0.5106176934
 C         -3.5656575135       -1.8208622841        0.1576159831
 O         -3.6043970128       -3.0590006522        0.0069663934
 H          1.3587823376       -0.4628191831       -0.6828506652
 C          1.1286648939       -0.7303683184        0.3342176662
 C         -0.0820997219       -1.3222631717        0.6537141949
 C         -0.3348423610       -1.6511477418        1.9835555715
 C          0.5992052239       -1.3864393942        2.9656299491
 C          1.8073176509       -0.7933686817        2.6428841863
 C          2.0675314265       -0.4568627339        1.3199285390
 N          3.2679063409        0.1844961146        0.9747495667
 S          3.9596713294       -0.0864496031       -0.5379988584
 O          3.2631461248        0.6929783432       -1.5296126175
 O          4.0567820557       -1.5067337823       -0.7939068016
 C          5.5797770123        0.6074385898       -0.2653545213
 C          6.6511695963       -0.2269916068       -0.0096522946
 C          7.8967890358        0.3345691246        0.2245736537
 C          8.0482412065        1.7127323878        0.2019880404
 C          6.9633648967        2.5376077008       -0.0568870636
 C          5.7159630619        1.9827851775       -0.2936107008
 H          4.8463317689        2.5820589155       -0.5081408035
 H          7.0852063720        3.6086293654       -0.0762105418
 H          9.0183623511        2.1472557754        0.3845287251
 H          8.7428319961       -0.3035357585        0.4227550310
 H          6.4875104684       -1.2926295171       -0.0093941528
 H          3.9588698800        0.1487797397        1.7115431173
 H          2.5368399399       -0.5831847635        3.4102428677
 H          0.3882973452       -1.6473624700        3.9919713552
 H         -1.2797322639       -2.1153742681        2.2338110636
 C         -1.1376295338       -1.6312636636       -0.3798886645
 H         -1.3128627008       -2.7173837420       -0.3734213568
 C         -0.7521477578       -1.2114587697       -1.7826158575
 C          0.1463177504       -2.0830096166       -2.6058367876
 C         -1.3070212026       -1.9651116257       -2.9520094440
 H         -1.5835709266       -1.4128124647       -3.8375813058
 H         -1.9536513290       -2.8040869088       -2.7390113197
 H          0.8748223912       -1.6098284938       -3.2475829655
 H          0.4921546785       -3.0041324541       -2.1609056885
 H         -0.6482432685       -0.1366137519       -1.8847711258
 O         -1.5284829246        1.1764595603        0.1424077080
