  62
        -98.93968150
 C          1.7969642506        0.4751623503        0.8747486198
 C          2.7958239507        1.2066860698        0.1845766893
 C          4.1762118306        0.7213069898        0.3534830994
 C          4.4154205406       -0.3552830299        1.1221093400
 C          5.7617799905       -0.9871154999        1.3232270102
 C          6.0202310303       -2.0876044805        0.2846181107
 C          5.7373613002       -1.6573996212       -1.1548460295
 H          5.9850978900       -2.5024973916       -1.8008992790
 H          4.6665983602       -1.4713871812       -1.2667476895
 C          6.5184756203       -0.4175069216       -1.6121157602
 H          6.9205713202       -0.6056924421       -2.6098886301
 H          7.3669018904       -0.2487111113       -0.9479420803
 C          5.6827938105        0.8606261185       -1.7019456708
 H          6.2689584105        1.6127768481       -2.2366198112
 H          4.7823926104        0.6680399483       -2.2904214306
 C          5.2604238107        1.4772622193       -0.3625325211
 H          6.1350938907        1.5968039895        0.2798966788
 H          4.8469416108        2.4685187492       -0.5700748416
 H          5.3799674502       -2.9414727103        0.5186517513
 H          7.0598414002       -2.4084224806        0.3733231608
 H          6.5311237006       -0.2204291200        1.2546140597
 H          5.7888793905       -1.4281355494        2.3211653104
 O          3.4327828605       -1.0281280894        1.7750180804
 C          2.1101335406       -0.6359076893        1.6626330503
 O          1.3125292005       -1.3418673989        2.3135838008
 H         -1.8371876895       -0.8135319493        0.8152841907
 C         -1.4460248596       -0.6525449198       -0.1781922494
 C         -0.3329244795        0.1541619699       -0.3651010199
 C          0.1762591004        0.3094224992       -1.6517920900
 C         -0.4162793298       -0.3344607413       -2.7215866996
 C         -1.5287054598       -1.1361576811       -2.5332803291
 C         -2.0427359298       -1.3009928803       -1.2524499190
 N         -3.1572651598       -2.1202336201       -1.0373817485
 S         -4.2504565197       -1.8074950693        0.1784424415
 O         -3.7140876296       -2.1918645587        1.4597735216
 O         -5.4496372998       -2.5042529494       -0.2363461481
 C         -4.5419748795       -0.0466658793        0.1445127106
 C         -4.5860524893        0.6471021113        1.3367000702
 C         -4.8503210991        2.0079043814        1.3141097395
 C         -5.0579741292        2.6504175307        0.1035444492
 C         -5.0094047394        1.9401481601       -1.0860428604
 C         -4.7549344295        0.5783344301       -1.0686977798
 H         -4.7212943697        0.0027924696       -1.9791078995
 H         -5.1679832794        2.4429210296       -2.0262816607
 H         -5.2543825990        3.7104890808        0.0877519986
 H         -4.8852875090        2.5603374019        2.2393950392
 H         -4.4036225493        0.1113246518        2.2548870705
 H         -3.5931473400       -2.4937578905       -1.8667485682
 H         -1.9885824800       -1.6426046915       -3.3681222288
 H         -0.0108683598       -0.2087289719       -3.7141552697
 H          1.0402520605        0.9390335590       -1.7991879504
 C          0.3190014807        0.8293892205        0.8140543997
 H         -0.1185095693        0.3905089610        1.7251201100
 C          0.0633229309        2.3301611405        0.8656842589
 C         -0.5343883191        3.1118161600       -0.2619863914
 C         -1.3459449091        2.8341939808        0.9647158788
 H         -1.5597506189        3.6451639411        1.6438759784
 H         -2.1360620892        2.1022714708        0.8859100992
 H         -0.7892236393        2.5889403896       -1.1696505711
 H         -0.1606341990        4.1109212799       -0.4248041420
 H          0.8070352110        2.8452758808        1.4645589286
 O          2.5715151007        2.2103556695       -0.5377927112
