  62
        -98.93664480
 C         -1.7242631488       -0.8189369455       -0.0809162630
 C         -2.8559769973       -0.8702462460        0.7730617678
 C         -4.0682334195       -0.1543707455        0.3374788713
 C         -4.0532149367        0.4862074541       -0.8447215955
 C         -5.1497674742        1.2814116677       -1.5066023408
 C         -6.5601601586        0.6732372067       -1.4687696289
 C         -7.5217391650        1.4240601727       -0.5460613008
 H         -7.3379474684        2.4955347088       -0.6500141905
 H         -8.5447276301        1.2356986532       -0.8794785816
 C         -7.4392278039        1.0384816678        0.9299055280
 H         -8.0664331434        1.7368132923        1.4890737851
 H         -7.8626760859        0.0410826346        1.0668086912
 C         -6.0330067078        1.0521481844        1.5328947247
 H         -6.1350372898        1.1695741818        2.6138900137
 H         -5.4708054788        1.9130338674        1.1725070092
 C         -5.2402996959       -0.2382898817        1.2766421592
 H         -5.9142815992       -1.0270703580        0.9299041420
 H         -4.8142516533       -0.6002560155        2.2174756125
 H         -6.5038548125       -0.3762960542       -1.1841058244
 H         -6.9662401635        0.7119531750       -2.4809050340
 H         -5.1653912775        2.2820652100       -1.0672334987
 H         -4.8255728595        1.4027133676       -2.5427922246
 O         -2.9445415962        0.5115053585       -1.6351470114
 C         -1.7626956175       -0.1188485704       -1.2854681271
 O         -0.8572005598        0.0309738885       -2.1319898871
 O         -2.8547764711       -1.4988814272        1.8654040142
 C         -0.4882399297       -1.5699077602        0.3845619098
 C          0.5395314524       -0.6501966238        0.9989811634
 C          0.9748409086       -0.8327683004        2.3059931447
 C          1.9501723010       -0.0124284470        2.8470674574
 C          2.5107885536        1.0051886675        2.0964611922
 C          2.0753431148        1.1994654905        0.7921515623
 C          1.1040582228        0.3721924280        0.2496325840
 H          0.7743657593        0.5275772747       -0.7667983970
 N          2.6549585424        2.2223101527        0.0103187015
 S          4.3096145535        2.0678437736       -0.2210107533
 O          4.9970691678        2.5373619689        0.9558431784
 O          4.6041259316        2.7710893171       -1.4493213626
 C          4.5613629498        0.3125920633       -0.4138005275
 C          5.1363568172       -0.4161327518        0.6070799902
 C          5.2463156347       -1.7903162706        0.4679756487
 C          4.7761371990       -2.4082590263       -0.6800240332
 C          4.2008201083       -1.6617329085       -1.6968808963
 C          4.0877531784       -0.2878684911       -1.5633705119
 H          3.6468664518        0.3228628879       -2.3354922900
 H          3.8338451297       -2.1427193063       -2.5896532393
 H          4.8588701459       -3.4787485414       -0.7840876795
 H          5.6923332789       -2.3745919844        1.2563963353
 H          5.4864068323        0.1047587482        1.4829711980
 H          2.1945092939        2.3326388699       -0.8826291182
 H          3.2780052039        1.6495042793        2.4946477101
 H          2.2780338107       -0.1672279229        3.8634980711
 H          0.5364638204       -1.6192581984        2.9024227897
 H         -0.8461767058       -2.2449920376        1.1730211969
 C          0.1553874572       -2.4038557459       -0.7076634863
 C          1.0388941522       -3.5499064542       -0.3208145336
 C         -0.3066016010       -3.8117295668       -0.9269116890
 H         -0.3572828342       -4.1846996971       -1.9388404586
 H         -1.0923181089       -4.1850189337       -0.2862407249
 H          1.9178084952       -3.7426659857       -0.9153963982
 H          1.1672875746       -3.7482339978        0.7321329706
 H          0.4290639297       -1.8275649667       -1.5816227834
