  62
        -98.94202434
 C          1.4625017718        1.1367215287        0.6433715549
 C          2.4042478722        0.9391977144       -0.3954097734
 C          2.9586878495       -0.4231647436       -0.5016499750
 C          2.5168962370       -1.3948877896        0.3143079031
 C          3.0196040785       -2.8088095222        0.3246218841
 C          4.1891718164       -2.9806380209        1.3040284152
 C          5.2861540064       -1.9280499168        1.1447619253
 H          4.8827942146       -0.9504859609        1.4181705113
 H          6.0725952169       -2.1658064505        1.8642021108
 C          5.8887363841       -1.8491555520       -0.2646796851
 H          6.9756852557       -1.7885737635       -0.1787122133
 H          5.6572759700       -2.7599227299       -0.8181045307
 C          5.4383041327       -0.6351270358       -1.0792448714
 H          5.5834405506        0.2747189699       -0.4914604188
 H          6.0797390398       -0.5607049127       -1.9614465596
 C          3.9860326290       -0.6617175588       -1.5728859092
 H          3.7872624305       -1.6025072752       -2.0912529391
 H          3.8632481917        0.1549548751       -2.2907633857
 H          3.7990296623       -2.9182446731        2.3224686311
 H          4.6136394524       -3.9762388324        1.1626265781
 H          2.1976651449       -3.4594625963        0.6288975441
 H          3.3280287765       -3.0842222712       -0.6822211222
 O          1.5796984119       -1.1804280685        1.2711057711
 C          1.0293974930        0.0744494348        1.4430045888
 O          0.1663386171        0.1340087681        2.3437952237
 O          2.7862304098        1.8255252925       -1.2024545860
 C          0.7253249711        2.4409950305        0.9242207607
 C         -0.7301652783        2.2680300802        0.5643154787
 C         -1.7439194624        2.8185119248        1.3395485780
 C         -3.0724430841        2.6252808567        1.0039948686
 C         -3.4154613848        1.8453991535       -0.0860618980
 C         -2.4083749903        1.2803571585       -0.8584528355
 C         -1.0788977672        1.5224226597       -0.5521126116
 H         -0.3109066220        1.0754008704       -1.1661122201
 N         -2.6949081227        0.4097302637       -1.9339323361
 S         -2.2542727187       -1.1893337103       -1.6637341448
 O         -0.8371363467       -1.2761702555       -1.4271918122
 O         -2.7639780305       -1.9207583416       -2.8037771543
 C         -3.1778592178       -1.6401221117       -0.2051403979
 C         -4.4169621418       -2.2306247429       -0.3683491937
 C         -5.1829281597       -2.5073946657        0.7519558185
 C         -4.7042780016       -2.1783795350        2.0116173847
 C         -3.4609736971       -1.5833890522        2.1578033197
 C         -2.6857478665       -1.3080975881        1.0412294282
 H         -1.7139572331       -0.8485032759        1.1365611045
 H         -3.0788225351       -1.3232374018        3.1319366337
 H         -5.3015770575       -2.3873347125        2.8850669044
 H         -6.1487148952       -2.9731493760        0.6400107011
 H         -4.7452731875       -2.4702995067       -1.3669795574
 H         -3.6628327798        0.4350495379       -2.2274205695
 H         -4.4510530163        1.6622960184       -0.3302486748
 H         -3.8490772571        3.0619136534        1.6127000656
 H         -1.4859600396        3.3818876471        2.2241277424
 H          0.7700128238        2.5907201203        2.0169089554
 C          1.3389472788        3.6706196326        0.2752085541
 C          0.8270914780        4.2454854575       -1.0075812364
 C          0.6109087521        4.9821750455        0.2784389624
 H          1.1809192711        5.8808362524        0.4589878329
 H         -0.3918667985        5.0050992708        0.6761338008
 H          1.5524735988        4.6184658530       -1.7140337494
 H         -0.0222261630        3.7666784854       -1.4715482164
 H          2.4117413750        3.7128954050        0.4229194880
