  62
        -98.94103661
 C         -2.5667336208       -0.2218975316        0.5113468739
 C         -2.2427788578        0.3306135282       -0.7527595860
 C         -2.0721858692        1.7909566049       -0.7912188506
 C         -2.2289455904        2.5081515258        0.3346867189
 C         -2.0945048566        4.0001277053        0.4327220516
 C         -0.6740017295        4.4262326426        0.8243125503
 C          0.4284723718        3.7767658679       -0.0124528486
 H          1.3765246137        4.2124699916        0.3125223621
 H          0.4793042512        2.7093159267        0.2150203867
 C          0.2770775097        3.9612052706       -1.5287294405
 H         -0.3871973394        4.8009463787       -1.7386130556
 H          1.2555018673        4.2083319630       -1.9457949101
 C         -0.2208003900        2.7167504578       -2.2672954339
 H          0.3451973908        1.8454586211       -1.9263517204
 H         -0.0215319934        2.8483396431       -3.3343957800
 C         -1.7155310903        2.4059027769       -2.1145966594
 H         -2.3030232822        3.3087936552       -2.2959139319
 H         -1.9827686186        1.6624146425       -2.8712807385
 H         -0.6077608888        5.5128258300        0.7356466589
 H         -0.5076287645        4.1595288933        1.8708755498
 H         -2.3656808694        4.4425260179       -0.5241669643
 H         -2.7908093286        4.3537794986        1.1958288544
 O         -2.5221280436        1.9422432232        1.5351052460
 C         -2.6553169331        0.5690192222        1.6577419028
 O         -2.8601238018        0.1785354366        2.8268721699
 H         -0.1477518086       -1.0846104575        0.8594801896
 C         -0.2873371785       -1.9348187743        0.2062422750
 C         -1.5708527941       -2.4282434598        0.0013155369
 C         -1.7307685467       -3.5348466864       -0.8202776315
 C         -0.6301884799       -4.1160304092       -1.4287672859
 C          0.6384256601       -3.5990382843       -1.2515116356
 C          0.8071505354       -2.4817010012       -0.4378409869
 N          2.0729693574       -1.8869939318       -0.3050799790
 S          2.3341116786       -0.5698068302        0.6959130278
 O          2.1929422762       -0.9440420958        2.0889565181
 O          1.5274019496        0.5324985189        0.2408423258
 C          4.0502551769       -0.2578479783        0.3300890608
 C          4.3640357709        0.5547862961       -0.7423805531
 C          5.6973742388        0.7741113681       -1.0501364687
 C          6.6896800279        0.1788493920       -0.2855065051
 C          6.3600125341       -0.6324245117        0.7898509076
 C          5.0282618065       -0.8551329644        1.1027638285
 H          4.7252098722       -1.4669093704        1.9372769832
 H          7.1334631183       -1.0906466177        1.3848569205
 H          7.7265195662        0.3509707928       -0.5274061684
 H          5.9566589493        1.4073759321       -1.8831522251
 H          3.5580066179        1.0008141940       -1.3019498994
 H          2.8508651372       -2.5281175520       -0.3450965620
 H          1.4903400948       -4.0388900513       -1.7460653517
 H         -0.7672874511       -4.9787867026       -2.0630757428
 H         -2.7152418822       -3.9336783434       -1.0015990957
 C         -2.7024367488       -1.7226042666        0.7103969548
 H         -2.5600202207       -1.8761783630        1.7944239116
 C         -4.0764064606       -2.2817095583        0.3693323837
 C         -5.2868518783       -1.3983281452        0.3305537813
 C         -4.7499457560       -1.9892134888       -0.9365217675
 H         -5.3141621625       -2.7790031299       -1.4105838264
 H         -4.2296702305       -1.3441466734       -1.6262846388
 H         -6.2131353678       -1.7835853637        0.7300379492
 H         -5.1415036157       -0.3419687439        0.5062612586
 H         -4.2258086766       -3.2736282107        0.7848021818
 O         -2.1149998564       -0.3476552898       -1.8048504649
