  62
        -98.94097374
 C          1.6778973895        1.4624747506        0.4186148697
 C          1.8165115735        0.2921998519        1.2091973592
 C          3.0698334485       -0.4539706076        1.0566943039
 C          3.9855353152       -0.0358826085        0.1638883518
 C          5.3238141433       -0.6716444275       -0.0992329471
 C          5.2714801281       -1.8717653879       -1.0547263293
 C          4.6748417684       -3.1497319161       -0.4636520772
 H          4.9034691169       -3.9605206443       -1.1581355540
 H          5.1729481649       -3.3790297494        0.4789363023
 C          3.1559312530       -3.0999475796       -0.2464095935
 H          2.7059953682       -4.0237020712       -0.6171326937
 H          2.7353824011       -2.2765649179       -0.8289677397
 C          2.7326621552       -2.9434843402        1.2141102905
 H          1.6414333043       -2.9073834324        1.2622573609
 H          3.0614441435       -3.8143516735        1.7856284177
 C          3.2753681404       -1.6805722103        1.8947925087
 H          2.7304107482       -1.5359892293        2.8312627831
 H          4.3340750715       -1.8037227776        2.1242897632
 H          4.7097508779       -1.5842934188       -1.9463257043
 H          6.2973000557       -2.0856622395       -1.3633899147
 H          5.7760148182       -0.9766795434        0.8451321079
 H          5.9499811170        0.1009782535       -0.5504519752
 O          3.7961153516        1.0615744952       -0.6121607576
 C          2.6511316462        1.8445305100       -0.5065897881
 O          2.6433965944        2.8190944587       -1.2788133062
 O          0.9355100409       -0.0987887095        2.0222728805
 C          0.4260605579        2.2919110347        0.6456669379
 C         -0.6680004831        1.9053264648       -0.3150008304
 C         -0.4727274044        1.9427660027       -1.6931040895
 C         -1.4943164511        1.5861797936       -2.5538497997
 C         -2.7165405453        1.1607703552       -2.0611549001
 C         -2.9147936741        1.1030551870       -0.6878997717
 C         -1.8969710984        1.4887141853        0.1743798874
 H         -2.0675589474        1.4307235633        1.2389964590
 N         -4.1312756478        0.6443207607       -0.1447964146
 S         -4.0391026584       -0.6649057366        0.9036484951
 O         -5.3899190880       -1.1781428129        0.9710369633
 O         -3.4539773438       -0.2531865150        2.1516901385
 C         -2.9930850752       -1.8129313368        0.0276701688
 C         -1.6210777097       -1.7574869862        0.1717682006
 C         -0.8383830590       -2.5725909329       -0.6317956615
 C         -1.4297008432       -3.4271424226       -1.5484652194
 C         -2.8100218239       -3.4796065975       -1.6701739677
 C         -3.5989723442       -2.6577296814       -0.8831874267
 H         -4.6753875661       -2.6622849133       -0.9452894157
 H         -3.2695511793       -4.1494234199       -2.3789506518
 H         -0.8094325682       -4.0547453001       -2.1686857287
 H          0.2348346415       -2.5253024287       -0.5371819569
 H         -1.1748752019       -1.0955237154        0.8982833431
 H         -4.8440153620        0.4703915296       -0.8403084237
 H         -3.5096364048        0.8726652437       -2.7343743090
 H         -1.3343547069        1.6296192631       -3.6204685771
 H          0.4859424231        2.2589153115       -2.0759605615
 H          0.0856403770        2.0052528515        1.6542463994
 C          0.7000757010        3.7900961605        0.6746343132
 C          0.1629117685        4.7592258528       -0.3313082599
 C         -0.3993670829        4.7373126653        1.0561508725
 H         -0.1731876546        5.5538144645        1.7250637490
 H         -1.3863444149        4.3185438933        1.1885531310
 H          0.8020240156        5.5790370716       -0.6216356353
 H         -0.4500799552        4.3817838244       -1.1339023136
 H          1.6871243137        4.0117117719        1.0681391670
