  62
        -98.93876070
 C         -1.3883348321       -1.5683656574        0.4706665654
 C         -1.5325528541       -0.2588479185        0.9906708311
 C         -2.7353071204        0.4904625903        0.5881085861
 C         -3.6247264124       -0.0896574181       -0.2394302187
 C         -4.9613058320        0.3905691956       -0.7665498830
 C         -5.3761596060        1.8522346301       -0.6237407103
 C         -4.5639799317        2.8286717297       -1.4744873490
 H         -4.8302635303        2.6770915196       -2.5236238367
 H         -4.8539510985        3.8455741361       -1.2019028511
 C         -3.0475027166        2.6944202327       -1.3612176990
 H         -2.5961688504        3.4213662247       -2.0416077801
 H         -2.7401986831        1.7035834374       -1.7022389323
 C         -2.4696111323        2.9426138949        0.0302204894
 H         -2.7821006829        3.9260833601        0.3859238189
 H         -1.3807975256        2.9461520604       -0.0636136516
 C         -2.8335151251        1.8990080487        1.0990859497
 H         -2.1033979655        1.9801833099        1.9095275392
 H         -3.8166394047        2.0899991916        1.5223850427
 H         -6.4172158973        1.9145257247       -0.9521950799
 H         -5.3587982509        2.1464225986        0.4214447521
 H         -4.9833953966        0.1125879863       -1.8251372737
 H         -5.7132712874       -0.2331955120       -0.2704428267
 O         -3.4342561806       -1.3501719600       -0.7273095468
 C         -2.3123777345       -2.1050232100       -0.4235459219
 O         -2.2780012920       -3.2078842805       -1.0013372238
 O         -0.6941182522        0.2630610231        1.7727409746
 C         -0.1363133770       -2.3443899210        0.8466521394
 C          0.8276142995       -2.2503555057       -0.3106098222
 C          0.9786509579       -3.2524311831       -1.2607553069
 C          1.8440486261       -3.0753431673       -2.3261278158
 C          2.5848630392       -1.9141402195       -2.4531507521
 C          2.4391109355       -0.9046800066       -1.5077016283
 C          1.5564557683       -1.0756383949       -0.4537424912
 H          1.4304909129       -0.2851462769        0.2711279923
 N          3.1651542213        0.2918907537       -1.6070206029
 S          3.8314365055        0.9656804720       -0.2229321428
 O          4.9464425882        1.7511173504       -0.7116981827
 O          4.1538166545       -0.0488511198        0.7533799583
 C          2.5927878307        2.0770349955        0.4044999228
 C          2.1298739367        3.0741512494       -0.4316921524
 C          1.2027837687        3.9786003046        0.0580891201
 C          0.7574986301        3.8717300096        1.3679634607
 C          1.2315526326        2.8652371868        2.1932256337
 C          2.1610354631        1.9587956976        1.7094064482
 H          2.5497189481        1.1580922779        2.3185169556
 H          0.8767881934        2.7737356561        3.2068866095
 H          0.0325386522        4.5751613671        1.7466281496
 H          0.8272564964        4.7624729224       -0.5803753931
 H          2.5041545918        3.1266188735       -1.4406973885
 H          3.8137124828        0.3281586708       -2.3802359602
 H          3.2684636343       -1.7850883363       -3.2789261877
 H          1.9503281571       -3.8572534177       -3.0630807027
 H          0.4031907312       -4.1595434521       -1.1756378762
 H          0.3052949377       -1.7921363718        1.6879356281
 C         -0.4219513801       -3.7605214491        1.2953465556
 C          0.6557259729       -4.5285749444        1.9987675087
 C         -0.5443041306       -4.0530115472        2.7595806109
 H         -1.2743515104       -4.7813961083        3.0793284741
 H         -0.4186181141       -3.2299519941        3.4479064365
 H          0.7528834086       -5.5845093806        1.7979687319
 H          1.5964031673       -4.0248334036        2.1659276651
 H         -1.0783798873       -4.3032149441        0.6272406506
