  62
        -98.94519920
 C         -1.9029849690       -0.9718142200        0.0504242486
 C         -2.6738323830       -0.2890989414        1.0199410105
 C         -3.2931338050        0.9680102049        0.5819663271
 C         -3.0499606791        1.4207683311       -0.6618807683
 C         -3.6543426865        2.6600260458       -1.2546286939
 C         -4.9675427334        2.3435266127       -1.9844548276
 C         -5.9438114379        1.5018471148       -1.1625198331
 H         -6.8444455617        1.3678787703       -1.7653757496
 H         -5.5125125736        0.5109892457       -1.0031493020
 C         -6.3225695914        2.1129493039        0.1937358331
 H         -6.0829169679        3.1768377269        0.2006508778
 H         -7.4022562663        2.0225247962        0.3295210057
 C         -5.6648671395        1.4383347428        1.3988874773
 H         -5.8241191031        0.3584198310        1.3462228336
 H         -6.1610853068        1.7991111124        2.3037190164
 C         -4.1620934897        1.6949546758        1.5698864575
 H         -3.9648572556        2.7687624497        1.5394396853
 H         -3.8709416247        1.3212995421        2.5562712996
 H         -5.4417818067        3.2860513528       -2.2637792101
 H         -4.7302140953        1.7972249000       -2.9001586981
 H         -3.8309887559        3.3861489742       -0.4632765861
 H         -2.9421783859        3.0807614882       -1.9667044363
 O         -2.2548470430        0.7676451490       -1.5466287527
 C         -1.6620310648       -0.4423315699       -1.2180570041
 O         -0.9655447797       -0.9366305847       -2.1237819360
 H          0.1627958352       -0.4097124237        1.6457503647
 C          0.8117663377       -1.0697718129        1.0817391336
 C          0.2516667907       -2.1294431493        0.3770836450
 C          1.0967678067       -2.9631336845       -0.3423888993
 C          2.4614945693       -2.7298734785       -0.3636715685
 C          3.0110767628       -1.6657888664        0.3278017172
 C          2.1741051276       -0.8295005703        1.0549943301
 N          2.7340289956        0.2805025719        1.7412763843
 S          3.0187681925        1.5958321839        0.7217592413
 O          3.2576349319        2.7196327290        1.6020497507
 O          1.9492943113        1.7597064503       -0.2396156297
 C          4.5288356866        1.1441438800       -0.1001443145
 C          5.7050916718        1.1838795374        0.6233322289
 C          6.8838134611        0.8025961229        0.0025769254
 C          6.8645965041        0.3893936013       -1.3214987683
 C          5.6750958645        0.3573664722       -2.0337262728
 C          4.4919368247        0.7376356531       -1.4192817243
 H          3.5416657175        0.7220565211       -1.9296173049
 H          5.6614699116        0.0348164973       -3.0623890158
 H          7.7824183366        0.0901492283       -1.8025106420
 H          7.8109603677        0.8264201885        0.5520582638
 H          5.6707002457        1.5158707495        1.6475618132
 H          2.1412119835        0.6009246813        2.4962613121
 H          4.0728224036       -1.4819931171        0.3168769460
 H          3.1052874730       -3.3846599787       -0.9304019900
 H          0.6851162804       -3.7907851807       -0.8959385915
 C         -1.2473866692       -2.2892070468        0.4271512222
 H         -1.5360009424       -2.4692367307        1.4736289121
 C         -1.7746667274       -3.4212797722       -0.4275530818
 C         -1.7465047490       -4.8276905151        0.0897815664
 C         -3.0500152893       -4.0983042283       -0.0272586550
 H         -3.7414876619       -4.3938532987       -0.8019444839
 H         -3.5302598697       -3.7568852205        0.8782992809
 H         -1.5449319111       -5.6286506984       -0.6050439443
 H         -1.3429497584       -4.9876010026        1.0780425047
 H         -1.6061489742       -3.2579511996       -1.4858406808
 O         -2.8321578762       -0.7100429015        2.1993647191
