  62
        -98.93184184
 C         -2.4031678192        0.6186090550       -0.4825386533
 C         -3.2173143923        0.4115090083        0.6553473937
 C         -4.3286437719       -0.5557609704        0.5099979894
 C         -4.4858788283       -1.2026721003       -0.6586816152
 C         -5.5529820067       -2.1926346732       -1.0433498417
 C         -6.9032346598       -1.5208878008       -1.3423605769
 C         -7.3145771118       -0.4345409426       -0.3519831481
 H         -6.5404522107        0.3344559420       -0.3219580558
 H         -8.2239772637        0.0364762202       -0.7346383763
 C         -7.6020988866       -0.9215566136        1.0661890736
 H         -7.9622710950       -0.0620165884        1.6373859458
 H         -8.4069492670       -1.6594190895        1.0349397359
 C         -6.4159642153       -1.5280559050        1.8185965641
 H         -6.2145956334       -2.5411948872        1.4814600011
 H         -6.7035706117       -1.6032333874        2.8714374498
 C         -5.1394931036       -0.6938425057        1.7764143181
 H         -4.4440975248       -1.0839047292        2.5294054279
 H         -5.3686575700        0.3277242585        2.1005274915
 H         -7.6727321544       -2.2937811183       -1.3791175209
 H         -6.8392353541       -1.0610902690       -2.3316653215
 H         -5.2046055946       -2.6908834736       -1.9507441154
 H         -5.6580219732       -2.9482907657       -0.2706244961
 O         -3.6586759957       -0.9888414600       -1.7227456392
 C         -2.6170777071       -0.0880347120       -1.6681549160
 O         -1.9590840031        0.0039329303       -2.7253293428
 O         -3.0534597817        0.9976134792        1.7558093687
 C         -1.2394048001        1.5959151810       -0.5109858126
 C          0.0222504401        0.9314263080       -0.0235431851
 C          0.0795703986        0.3131051892        1.2218911087
 C          1.2483479611       -0.2887937466        1.6505628931
 C          2.3773579270       -0.2939491595        0.8495869050
 C          2.3300845276        0.3164004005       -0.3960765776
 C          1.1564133452        0.9262740293       -0.8217346436
 H          1.1198609968        1.3909104759       -1.7982895795
 N          3.4667304416        0.2975279075       -1.2205654940
 S          4.9416355315        0.7633093100       -0.5685336776
 O          4.7641667404        1.7088639224        0.5087789151
 O          5.7265729913        1.2130964845       -1.6971192459
 C          5.6361592182       -0.7529279039        0.0540358792
 C          6.0253168029       -0.8402228625        1.3762609745
 C          6.5728899065       -2.0277288628        1.8365021334
 C          6.7216668424       -3.1003248052        0.9707453956
 C          6.3285874898       -2.9952697378       -0.3553052146
 C          5.7816015543       -1.8107764130       -0.8219088507
 H          5.4673564636       -1.6878731404       -1.8450211896
 H          6.4459899763       -3.8314883574       -1.0256230864
 H          7.1468403126       -4.0236913665        1.3312747225
 H          6.8797132679       -2.1112356451        2.8667245883
 H          5.8862289183        0.0179975608        2.0143872995
 H          3.3227365843        0.7159299893       -2.1280713703
 H          3.2886932349       -0.7649604277        1.1799262933
 H          1.2808298706       -0.7627792554        2.6199043057
 H         -0.8002534063        0.3157988446        1.8472502022
 H         -1.0956104076        1.8317038210       -1.5776468550
 C         -1.5424739492        2.9085776188        0.1996304520
 C         -0.8575864657        3.3634247832        1.4496190534
 C         -0.5469140201        4.0301000562        0.1455304324
 H         -0.9033692590        5.0344066077       -0.0267004608
 H          0.4134820061        3.8201139917       -0.3026551586
 H         -1.4518207128        3.8937370982        2.1779031477
 H         -0.1037785649        2.7270250988        1.8851393156
 H         -2.5867734195        3.1868058896        0.1014510255
