  62
        -98.94055819
 C          1.7501436622        0.7929063223        0.1914664059
 C          3.0555406135        1.0328091379        0.6773267505
 C          4.0070882090       -0.0888531407        0.5924885936
 C          3.6006844003       -1.2616374543        0.0708113064
 C          4.3282300563       -2.5784656944       -0.1042082656
 C          5.8484687757       -2.6538298571        0.0117505110
 C          6.6122913529       -1.9238101429       -1.0923884001
 H          7.6775710125       -1.9646447353       -0.8547973481
 H          6.4608456287       -2.4594641342       -2.0329878681
 C          6.2105104218       -0.4688754208       -1.3219134799
 H          6.8323153257       -0.0740806137       -2.1301009054
 H          5.1744029679       -0.4232506902       -1.6638983475
 C          6.3761748488        0.4540685783       -0.1160630326
 H          7.3993611010        0.3892809174        0.2590644810
 H          6.2111597356        1.4782270531       -0.4616025316
 C          5.4073073783        0.1990169043        1.0518591474
 H          5.3521262275        1.1134911712        1.6496782432
 H          5.7700073874       -0.5938406742        1.7015727914
 H          6.1702918418       -2.3075383188        0.9894064230
 H          6.1122889037       -3.7131277520       -0.0509042051
 H          3.8917040612       -3.2596739712        0.6345299048
 H          4.0260314228       -2.9552426996       -1.0864782100
 O          2.3223444176       -1.4489574447       -0.3720147510
 C          1.3748248784       -0.4396631126       -0.3368074686
 O          0.2626079774       -0.7644002343       -0.7923366517
 O          3.4115918002        2.1354693214        1.1734948239
 C          0.7292202102        1.9148991076        0.2274732374
 C         -0.4947969384        1.4833088101        0.9952362734
 C         -0.3356135523        0.9933234423        2.2900684339
 C         -1.4266715510        0.5890192434        3.0334255747
 C         -2.7021060004        0.6559741020        2.4985158209
 C         -2.8730758201        1.1470439053        1.2110201872
 C         -1.7747020571        1.5673938252        0.4712887767
 H         -1.9414760083        1.9383598961       -0.5255294367
 N         -4.1586973315        1.2519222249        0.6454567354
 S         -4.4902787817        0.4722428195       -0.7997138251
 O         -3.6254720306        0.9696667530       -1.8366983206
 O         -5.9095575776        0.6681744312       -1.0027938306
 C         -4.1744423585       -1.2504512492       -0.4605650135
 C         -5.2471947107       -2.0644151334       -0.1488188354
 C         -5.0131719288       -3.3883664980        0.1833266970
 C         -3.7134504854       -3.8721695796        0.2087895742
 C         -2.6492849877       -3.0406272688       -0.1023872938
 C         -2.8746251213       -1.7146776510       -0.4410232641
 H         -2.0523348212       -1.0611845969       -0.6868665591
 H         -1.6339208806       -3.4041667435       -0.0856139352
 H         -3.5278380137       -4.9018675345        0.4714704320
 H         -5.8405046318       -4.0366574137        0.4233749580
 H         -6.2399148882       -1.6453068135       -0.1847849845
 H         -4.9045448364        1.0607926458        1.3004982786
 H         -3.5569193548        0.3356997724        3.0748392621
 H         -1.2851383007        0.2123933356        4.0351598956
 H          0.6618519036        0.9342163990        2.7042638755
 H          1.2121999199        2.7326162461        0.7831231603
 C          0.4284646417        2.3960406985       -1.1763549794
 C         -0.0211539847        3.8064841584       -1.4084290613
 C          1.3547994406        3.3805590231       -1.8219243940
 H          1.5689737715        3.2736963609       -2.8748612881
 H          2.1952696216        3.7263092520       -1.2378051020
 H         -0.7570166009        3.9902901619       -2.1770151303
 H         -0.1154914955        4.4488425200       -0.5458991833
 H          0.0087023667        1.6195358890       -1.8074391803
