  62
        -98.93961730
 C         -1.0104868104       -1.7634440123        0.4193451624
 C         -1.4296149524       -0.6077146084        1.1197476949
 C         -2.7180009672       -0.0176598014        0.7125742869
 C         -3.4014792568       -0.5845480719       -0.2968793149
 C         -4.7113090981       -0.1457326111       -0.8931703831
 C         -4.4869169285        0.8041477642       -2.0818432823
 C         -4.3890318421        2.2828595660       -1.7116361311
 H         -4.1234005383        2.8279789059       -2.6202007929
 H         -5.3710615913        2.6376047124       -1.3917868662
 C         -3.3669700990        2.6150846750       -0.6220258312
 H         -2.4428654176        2.0630969094       -0.8027428524
 H         -3.1328906101        3.6777230867       -0.7010471499
 C         -3.8772165640        2.3219336502        0.7962413046
 H         -3.7511354149        3.2089658485        1.4202912556
 H         -4.9477699279        2.1228373192        0.7609282998
 C         -3.1599133010        1.1750873288        1.5170064250
 H         -2.2403008948        1.5520972453        1.9749982347
 H         -3.7926194826        0.8196442819        2.3379290004
 H         -3.5741907040        0.4903713894       -2.5948981093
 H         -5.3135868355        0.6850636574       -2.7852982676
 H         -5.1983003240       -1.0518883605       -1.2597753764
 H         -5.3472837489        0.3091745215       -0.1398918926
 O         -2.9363819212       -1.6699910500       -0.9760348556
 C         -1.7392454758       -2.2825747737       -0.6503101804
 O         -1.4537429406       -3.2574941160       -1.3706394532
 O         -0.7581300239       -0.0905641568        2.0529029522
 C          0.3036162462       -2.4143975431        0.8180987731
 C          1.3189844411       -2.1460755629       -0.2647815496
 C          1.7818401653       -3.1149839308       -1.1449536275
 C          2.6830487176       -2.7776949246       -2.1399254067
 C          3.1545277881       -1.4835541921       -2.2615883311
 C          2.7004299486       -0.5066796542       -1.3817249423
 C          1.7810827313       -0.8420918589       -0.4016183089
 H          1.4203102678       -0.0818787661        0.2761497046
 N          3.1485889910        0.8193534146       -1.4781257754
 S          3.4811393803        1.6773144931       -0.0775716955
 O          4.3993784280        2.7133280990       -0.5044248256
 O          3.9567496896        0.8091348810        0.9743293879
 C          1.9413640695        2.4412980211        0.3769790087
 C          1.2503711800        3.1433374900       -0.5909325126
 C          0.0787027216        3.7905934704       -0.2366649772
 C         -0.3759605764        3.7302527583        1.0721393605
 C          0.3293533059        3.0218545061        2.0312720933
 C          1.5010961376        2.3698695115        1.6825975285
 H          2.0714272432        1.7972174527        2.3966218058
 H         -0.0284284252        2.9642478999        3.0467109663
 H         -1.2878343189        4.2367025587        1.3460915779
 H         -0.4762707736        4.3398217657       -0.9801707178
 H          1.6387638208        3.1710871363       -1.5955627919
 H          3.8497728564        0.9795472269       -2.1869771212
 H          3.8663584053       -1.2268343392       -3.0316503981
 H          3.0305545148       -3.5366636841       -2.8246112998
 H          1.4255005472       -4.1281775612       -1.0620824463
 H          0.6319149381       -1.8788368431        1.7203692454
 C          0.1327140371       -3.8789562031        1.1573034305
 C          1.1973110630       -4.5791000501        1.9461167120
 C         -0.1260586103       -4.2736876377        2.5791227818
 H         -0.8070750065       -5.0892457622        2.7710454642
 H         -0.1702265167       -3.4856083965        3.3166895900
 H          1.4275915313       -5.6058879211        1.7061981530
 H          2.0533121085       -3.9962841137        2.2522333012
 H         -0.3821462541       -4.4392283940        0.3863800100
