  62
        -98.93796132
 C         -1.5997425777       -1.6657013655        0.1289218984
 C         -1.4895888290       -0.3330591319       -0.3360228769
 C         -2.5707975071        0.5769239989        0.0723853878
 C         -3.5590617402        0.1286924152        0.8665923748
 C         -4.7062944038        0.9326774014        1.4195942896
 C         -5.7124260548        1.4837493503        0.3907320311
 C         -5.4194822038        2.9148086524       -0.0768969281
 H         -6.3637601958        3.4569739505       -0.1588745919
 H         -4.8338306898        3.4216884053        0.6908706859
 C         -4.7120164684        3.0435914713       -1.4293196182
 H         -5.4398386791        2.8848795036       -2.2284418179
 H         -4.3457463404        4.0685820814       -1.5186472350
 C         -3.5504951579        2.0788174000       -1.6690026320
 H         -3.9409190294        1.0813942097       -1.8845341111
 H         -3.0199208599        2.4019546928       -2.5667619249
 C         -2.5559499352        1.9652147877       -0.4972372387
 H         -2.7864914522        2.6983973612        0.2737682839
 H         -1.5387661595        2.1386333272       -0.8525003294
 H         -5.7687395176        0.8072258373       -0.4616561053
 H         -6.6916332904        1.4770167568        0.8723034989
 H         -4.3031904219        1.7588618662        2.0095686487
 H         -5.2289982194        0.2599392498        2.1026436677
 O         -3.6093912562       -1.1561379021        1.3154235203
 C         -2.6451614867       -2.0805037912        0.9554882623
 O         -2.8216798414       -3.2204000980        1.4312922916
 O         -0.5446929752        0.0848582024       -1.0538561267
 C         -0.5457800226       -2.6996384059       -0.2329796533
 C          0.7696819364       -2.2458168874        0.3490795956
 C          0.9483939314       -2.3105582680        1.7283919265
 C          2.1092369548       -1.8419643239        2.3134223483
 C          3.1113078569       -1.2849604066        1.5371261200
 C          2.9359185358       -1.2041898558        0.1627056498
 C          1.7779994253       -1.6968938824       -0.4255851682
 H          1.6570527257       -1.6231274019       -1.4942664823
 N          3.9390944221       -0.6230960430       -0.6372844911
 S          4.4773403358        0.9098902240       -0.2327837166
 O          5.1731579668        1.3850954901       -1.4074378385
 O          5.2579828583        0.8310450803        0.9768821380
 C          3.0126995871        1.8856571558        0.0502263096
 C          2.3871928377        2.4619977915       -1.0366810391
 C          1.2350047706        3.2018651185       -0.8325584316
 C          0.7237090799        3.3414444434        0.4480244415
 C          1.3579538082        2.7481869452        1.5278068400
 C          2.5156096490        2.0133131620        1.3310808883
 H          3.0428918039        1.5478944557        2.1474399598
 H          0.9533966644        2.8538104227        2.5218692851
 H         -0.1754645761        3.9160967789        0.6056843404
 H          0.7367799208        3.6612936936       -1.6713749748
 H          2.8189308594        2.3356766523       -2.0166103818
 H          3.7223299392       -0.6542935753       -1.6235723829
 H          4.0198892168       -0.9054501091        1.9759707428
 H          2.2360682661       -1.9064112204        3.3836486397
 H          0.1563046208       -2.7273283739        2.3358299410
 H         -0.8440323646       -3.6282426433        0.2718298772
 C         -0.5133584165       -2.9442881456       -1.7267532191
 C          0.1502269522       -4.1770808584       -2.2606272558
 C         -1.3424897215       -4.0506916238       -2.3028151630
 H         -1.8203283777       -3.8925577299       -3.2581298410
 H         -1.9278325447       -4.6451183592       -1.6164572964
 H          0.6972693312       -4.1104950135       -3.1888470030
 H          0.5812581346       -4.8602752731       -1.5445473028
 H         -0.4377274977       -2.0322732583       -2.3065267593
