  62
        -98.94626916
 C         -1.5362971549       -1.4647688218       -0.0917215725
 C         -1.5133540221       -0.1082849575        0.3149194165
 C         -2.8097101545        0.4554021297        0.7124122316
 C         -3.9084692336       -0.3206089369        0.7043391297
 C         -5.2951747702        0.1067522132        1.1032797208
 C         -6.0771687135        0.8129988073       -0.0129009156
 C         -5.6099878875        2.2323895609       -0.3383776904
 H         -6.3763488427        2.6835241595       -0.9719772656
 H         -5.5626651870        2.8173009790        0.5806411615
 C         -4.2612323136        2.3033289641       -1.0681154616
 H         -4.0223875839        1.3226024341       -1.4859285915
 H         -4.3386823728        2.9981608139       -1.9074891867
 C         -3.0926072957        2.7685110368       -0.1990648958
 H         -3.2568241928        3.8031115637        0.1101121069
 H         -2.1830164554        2.7325231335       -0.8031450532
 C         -2.8590928649        1.9139930481        1.0532167096
 H         -3.6353609636        2.1078007621        1.7930101254
 H         -1.8892874448        2.1839219030        1.4782406442
 H         -7.1221940400        0.8606875290        0.3022850220
 H         -6.0309289027        0.1981324966       -0.9148009796
 H         -5.8341692344       -0.8024778786        1.3783382468
 H         -5.2409949055        0.7559327350        1.9777174980
 O         -3.8788547472       -1.6317802505        0.3413279000
 C         -2.7010905043       -2.2297603018       -0.0809460714
 O         -2.8189295416       -3.4300713664       -0.4030950246
 O         -0.4712353816        0.5924926623        0.3481744094
 C         -0.2489334527       -2.1201936600       -0.5583761969
 C          0.8145878696       -1.9447178787        0.4971942188
 C          0.5386901036       -2.3456098205        1.8024305416
 C          1.4691316175       -2.1677930588        2.8071408263
 C          2.6894361879       -1.5727522217        2.5365863937
 C          2.9791037937       -1.1820291004        1.2354585269
 C          2.0517455783       -1.3858118538        0.2224219561
 H          2.3134491129       -1.0939113427       -0.7797304087
 N          4.2098563957       -0.5895432027        0.9255339863
 S          4.3497183665        0.5134558068       -0.3189118992
 O          4.3520466833       -0.1714823437       -1.5882102091
 O          5.5618593594        1.2413097555       -0.0032737057
 C          2.9524777365        1.6166207386       -0.2159547727
 C          2.1889683874        1.8468898349       -1.3407131494
 C          1.1339441329        2.7401612011       -1.2645841094
 C          0.8600288915        3.3828994694       -0.0691564480
 C          1.6356249877        3.1401696800        1.0526073656
 C          2.6943935138        2.2512177984        0.9815952679
 H          3.3167908381        2.0470949230        1.8380567770
 H          1.4131211545        3.6362784857        1.9839783178
 H          0.0313756915        4.0712098859       -0.0093504015
 H          0.5234205123        2.9232744255       -2.1352436429
 H          2.4308779435        1.3191732147       -2.2503285795
 H          4.7857202975       -0.3466150755        1.7173747786
 H          3.4110965126       -1.4162375665        3.3236539044
 H          1.2392592703       -2.4821761419        3.8141984742
 H         -0.4233803311       -2.7910473832        2.0182369421
 H         -0.4649305874       -3.1930491663       -0.6649690872
 C          0.1496294000       -1.5613446732       -1.9085307841
 C          0.9996093479       -2.3695753211       -2.8407537979
 C         -0.4489338339       -2.1431221638       -3.1520044378
 H         -0.7057383929       -1.4770596684       -3.9621037440
 H         -1.1341576633       -2.9700049882       -3.0330992373
 H          1.7453146363       -1.8606088075       -3.4334735861
 H          1.3001723510       -3.3541062942       -2.5151263934
 H          0.3009220849       -0.4876216083       -1.8825025914
