  62
        -98.93767748
 C          2.1616897639        1.2016793690        0.4616914682
 C          2.3114486162        0.3107680880       -0.6280792220
 C          3.1504457537       -0.8736301376       -0.3816569151
 C          3.6809633379       -1.0612542297        0.8404494754
 C          4.6195854285       -2.1699203924        1.2239717541
 C          6.0358605573       -1.8669602684        0.6940430773
 C          6.5331580697       -2.8439838142       -0.3714438164
 H          7.4316316223       -2.4118742059       -0.8169157569
 H          6.8219026292       -3.7796455130        0.1118729030
 C          5.5373430989       -3.1809429702       -1.4854904331
 H          6.1058479353       -3.6579454955       -2.2866574914
 H          4.8222942145       -3.9233901686       -1.1277237568
 C          4.7600340943       -1.9955197241       -2.0721723396
 H          4.6714973996       -2.1472337029       -3.1497695540
 H          5.3090322904       -1.0650818513       -1.9261350599
 C          3.3290774203       -1.8333128130       -1.5253447117
 H          2.6911872500       -1.4384166388       -2.3220030549
 H          2.9299142520       -2.8127148424       -1.2456301713
 H          6.0394857542       -0.8527202600        0.2895141870
 H          6.7440071310       -1.8767109174        1.5239082870
 H          4.6254454708       -2.2286741246        2.3126479989
 H          4.2544879684       -3.1144297464        0.8263433869
 O          3.4779177534       -0.2026448719        1.8741938053
 C          2.7157239620        0.9436657818        1.7141273753
 O          2.6001595298        1.6339450288        2.7477118014
 O          1.7740190493        0.4943304386       -1.7512124221
 C          1.3290797792        2.4615377397        0.3011598153
 C         -0.0873315953        2.0950037185       -0.0724776451
 C         -0.7844281628        2.6853165174       -1.1177616172
 C         -2.0775755267        2.2863537623       -1.4101463004
 C         -2.7048456186        1.3039604015       -0.6667316510
 C         -2.0187410800        0.7109473195        0.3853782486
 C         -0.7247191061        1.1127696458        0.6759987093
 H         -0.1888914121        0.6465598613        1.4949468837
 N         -2.6526682368       -0.2783627866        1.1598607185
 S         -3.3433255523       -1.5822440020        0.3547589657
 O         -3.3504169852       -2.6590774321        1.3218271975
 O         -2.6787208043       -1.8486838877       -0.8996392769
 C         -5.0193189373       -1.0559906276        0.0632746220
 C         -5.5220790586       -1.0366639817       -1.2228848297
 C         -6.8313903871       -0.6276194986       -1.4241237929
 C         -7.6100961179       -0.2483413917       -0.3415273654
 C         -7.0907283490       -0.2761079637        0.9443418463
 C         -5.7831594083       -0.6846847310        1.1525181182
 H         -5.3422461000       -0.7245677971        2.1345481133
 H         -7.6992824819        0.0193569052        1.7837333352
 H         -8.6280092375        0.0706047512       -0.5008325165
 H         -7.2367366743       -0.6058871365       -2.4229603409
 H         -4.8768226213       -1.3353106773       -2.0338117566
 H         -2.0880055887       -0.6059976138        1.9306439618
 H         -3.7095807994        0.9879453855       -0.8948365680
 H         -2.6047165239        2.7481671794       -2.2309433690
 H         -0.3121319243        3.4499565568       -1.7119228828
 H          1.3054129183        2.9373758575        1.2926584480
 C          1.9920755376        3.4071289032       -0.6781651560
 C          1.7831506686        4.8859152389       -0.5574897893
 C          3.1059242627        4.2837320442       -0.1930098679
 H          3.9498025132        4.4537514407       -0.8446557900
 H          3.3695125302        4.2162801125        0.8527668422
 H          1.7217264658        5.4736112511       -1.4608707012
 H          1.1498496620        5.2374189032        0.2428234725
 H          2.0874034415        2.9793233745       -1.6694315270
