  62
        -98.94459670
 C         -1.6114393769       -1.4631155400        0.1899088173
 C         -1.7960260704       -0.3970830836        1.1098366291
 C         -3.0356197626        0.3751344028        0.9759842998
 C         -3.9011501123        0.0743288274       -0.0095110331
 C         -5.2375085995        0.7241498893       -0.2486245776
 C         -5.1747980977        2.0388521245       -1.0378037297
 C         -4.6175891055        3.2341377905       -0.2641269411
 H         -4.8313587996        4.1272828003       -0.8543713136
 H         -5.1510428984        3.3340046953        0.6816532815
 C         -3.1068968188        3.1637914985       -0.0019704548
 H         -2.6641096552        2.4183997569       -0.6671005192
 H         -2.6499537460        4.1265832328       -0.2414488359
 C         -2.7306778392        2.8294303893        1.4414470070
 H         -1.6410482204        2.7910032493        1.5200743737
 H         -3.0833714486        3.6228482826        2.1041759095
 C         -3.2882181301        1.4916797566        1.9447437757
 H         -2.7810097471        1.2395875709        2.8795931252
 H         -4.3567100714        1.5818928600        2.1424031672
 H         -4.5804182305        1.8777904409       -1.9399105345
 H         -6.1938082676        2.2784625682       -1.3499423204
 H         -5.8300918163        0.0073971559       -0.8212166756
 H         -5.7327984655        0.8974612240        0.7075629413
 O         -3.6594702937       -0.9110850264       -0.9107578698
 C         -2.5226784438       -1.7055487242       -0.8392952655
 O         -2.4654941741       -2.5639985720       -1.7402900719
 O         -0.9687860356       -0.1202499246        2.0203945392
 C         -0.3890893525       -2.3403885424        0.4020604728
 C          0.7579006939       -1.9594938554       -0.5024923262
 C          0.6827137332       -2.1066671730       -1.8839350162
 C          1.7613202461       -1.7700895670       -2.6808648052
 C          2.9243387057       -1.2670490771       -2.1229145200
 C          3.0059606847       -1.1084143014       -0.7454223158
 C          1.9285647694       -1.4654813332        0.0541153952
 H          2.0095615787       -1.3384479525        1.1232734988
 N          4.1681325786       -0.5936796654       -0.1420976613
 S          4.0020846941        0.6784484421        0.9380868616
 O          5.3310943693        1.2399671908        1.0438322732
 O          3.4125461491        0.2115045511        2.1650058254
 C          2.9283974151        1.8149920415        0.0818826397
 C          3.5138401438        2.6860208491       -0.8176224860
 C          2.7062796535        3.5127580322       -1.5801242529
 C          1.3281268867        3.4415247142       -1.4438616731
 C          0.7575581464        2.5613158029       -0.5385133089
 C          1.5590593816        1.7392931435        0.2388500284
 H          1.1292838356        1.0565825473        0.9556514783
 H         -0.3135602734        2.5004105624       -0.4316243092
 H          0.6932508205        4.0746942765       -2.0433239101
 H          3.1495972317        4.2025353643       -2.2800013299
 H          4.5893757672        2.7081949179       -0.8891333788
 H          4.9150861161       -0.3990444324       -0.7942013198
 H          3.7631154283       -1.0009794728       -2.7480455315
 H          1.6936252035       -1.8936634966       -3.7510689489
 H         -0.2302847814       -2.4785222512       -2.3228470630
 H         -0.0702223705       -2.1358944101        1.4339639605
 C         -0.6895691593       -3.8225340873        0.2837841338
 C          0.2358079871       -4.8017352220        0.9385980592
 C         -1.1377873579       -4.5795149883        1.4958433383
 H         -1.8782767553       -5.3556479634        1.3735021233
 H         -1.2293234482       -4.0321222936        2.4230250235
 H          0.4414970852       -5.7329466554        0.4336481018
 H          1.0763418363       -4.4045780323        1.4882692305
 H         -1.1284236466       -4.1005594218       -0.6652083722
