  62
        -98.94361568
 C         -1.5556042926       -1.4547413485        0.0376054655
 C         -2.1024513288       -0.5353112651        0.9650535453
 C         -3.1203877051        0.3779781720        0.4345253238
 C         -3.4793564021        0.2984979719       -0.8596153512
 C         -4.4992611735        1.1653625393       -1.5470704054
 C         -3.9435504464        2.5131981283       -2.0284739601
 C         -3.6498824344        3.5316059475       -0.9254990560
 H         -4.5310501465        3.6435531028       -0.2930594629
 H         -3.4773085002        4.4918354537       -1.4158449674
 C         -2.4293494562        3.1952079964       -0.0564524159
 H         -1.8133510754        4.0889077299        0.0661025154
 H         -1.8127076532        2.4513771679       -0.5673878529
 C         -2.7699762132        2.6799248366        1.3420427488
 H         -3.2651918699        3.4686098680        1.9123313865
 H         -1.8365778935        2.4250594617        1.8490026095
 C         -3.6620238619        1.4322120236        1.3518642417
 H         -4.6830681033        1.6928680936        1.0751902560
 H         -3.6662254273        1.0219425240        2.3644549287
 H         -4.6833213413        2.9473098207       -2.7050991691
 H         -3.0346140682        2.3294975105       -2.6068017752
 H         -4.8478389576        0.6063592632       -2.4181487446
 H         -5.3464092096        1.3356062412       -0.8822204295
 O         -2.9435470280       -0.6130286974       -1.7154997573
 C         -1.9550507429       -1.4960977282       -1.2981059036
 O         -1.5242772616       -2.2443338667       -2.1958642262
 H          0.4166386738       -0.1030881539       -0.5841393036
 C          1.1432815147       -0.9006817435       -0.6831138699
 C          0.8366297266       -2.1650566654       -0.1981785670
 C          1.7940249121       -3.1653780993       -0.3284457343
 C          3.0143766893       -2.9055999102       -0.9280109045
 C          3.3102025742       -1.6449713614       -1.4151087430
 C          2.3596970958       -0.6419691116       -1.2966321200
 N          2.6716415525        0.6594941171       -1.7654973458
 S          3.6266681825        1.5393649906       -0.7031107711
 O          3.7328074718        2.8671239607       -1.2628687366
 O          4.8594948202        0.8231725465       -0.5035078139
 C          2.6785253712        1.5819707869        0.8061077090
 C          2.7120545630        0.4866547819        1.6466872730
 C          1.8838270198        0.4722461419        2.7575138995
 C          1.0446084945        1.5460279908        3.0100913732
 C          1.0315964095        2.6428533806        2.1620030368
 C          1.8462512782        2.6578977260        1.0414563580
 H          1.8598846353        3.4865263138        0.3511942163
 H          0.3845600001        3.4815035631        2.3654954293
 H          0.3912567322        1.5211618746        3.8677922865
 H          1.8859958995       -0.3803098859        3.4172618057
 H          3.3820026639       -0.3276059461        1.4218582820
 H          1.8491801313        1.2056053614       -1.9824447026
 H          4.2598581201       -1.4181081260       -1.8709252488
 H          3.7446120042       -3.6951896323       -1.0176313003
 H          1.5822849645       -4.1540469975        0.0451871758
 C         -0.4740839238       -2.4019059093        0.5129357367
 H         -0.3234589434       -2.1541449742        1.5755319019
 C         -0.9424220180       -3.8408854729        0.4136988542
 C         -0.5551807368       -4.8456402168        1.4564992724
 C         -1.9622759521       -4.3353958058        1.3943608281
 H         -2.7402602921       -4.9955742664        1.0415773925
 H         -2.2899355459       -3.6441769314        2.1572311672
 H          0.0651749787       -4.5091622531        2.2734946451
 H         -0.3668503781       -5.8626953689        1.1467497393
 H         -1.0334017690       -4.1766238793       -0.6131774923
 O         -1.7511400818       -0.4777260308        2.1725995737
