  62
        -98.94593405
 C         -1.5730186380       -1.5630656369       -0.2980923990
 C         -1.4337886603       -0.1934151342       -0.6300962495
 C         -2.6877463638        0.5663921240       -0.7394378857
 C         -3.8600703408       -0.0615174666       -0.5367777109
 C         -5.2023461109        0.6097771834       -0.5463859047
 C         -5.5890244405        1.0927997539        0.8589576113
 C         -4.4893575704        1.8845530105        1.5672803437
 H         -4.8865943752        2.1937760367        2.5366475962
 H         -3.6428179311        1.2225385526        1.7638297607
 C         -3.9984827277        3.1191681353        0.7983205467
 H         -3.9225905986        3.9567430779        1.4948857270
 H         -4.7302809075        3.3958538768        0.0384157190
 C         -2.6250931140        2.9557543796        0.1440787860
 H         -1.9066956134        2.5884195038        0.8810929199
 H         -2.2868789166        3.9424617476       -0.1821903805
 C         -2.5765471544        2.0266907732       -1.0748410135
 H         -3.3457921878        2.3180980529       -1.7926392120
 H         -1.5964194194        2.1468469715       -1.5447991908
 H         -6.4876121087        1.7072220554        0.7775830922
 H         -5.8295296421        0.2198929313        1.4704631686
 H         -5.1777516301        1.4505127889       -1.2368429348
 H         -5.9465227453       -0.1101649577       -0.8910216872
 O         -3.9528458787       -1.3842606424       -0.2413385093
 C         -2.8155322040       -2.1630157834       -0.0984737356
 O         -3.0395003369       -3.3529414672        0.2043968818
 H          2.2456697917       -1.3896758241       -0.2450235335
 C          1.7942678705       -1.3141354582        0.7290585741
 C          0.5209420365       -1.8064223634        0.9613230662
 C         -0.0144586091       -1.6996696587        2.2433919322
 C          0.7047660634       -1.1079129045        3.2627975945
 C          1.9687792200       -0.5968531059        3.0222619978
 C          2.5127692842       -0.7025034325        1.7482809941
 N          3.7961871403       -0.2085401470        1.4811192776
 S          4.1992334997        0.4183259466       -0.0105640100
 O          4.3582776285       -0.6443147506       -0.9723020749
 O          5.3919628410        1.1979958999        0.2544286957
 C          2.8900890810        1.5217986141       -0.5094965145
 C          2.3662936726        2.4053590856        0.4117460783
 C          1.4063805182        3.3128479460       -0.0026235093
 C          0.9969481428        3.3299701288       -1.3259299164
 C          1.5306079730        2.4351079719       -2.2378771341
 C          2.4847069761        1.5198036367       -1.8269362367
 H          2.9163563254        0.7979294366       -2.5023250917
 H          1.2001944403        2.4394910215       -3.2647154974
 H          0.2516876776        4.0413902502       -1.6467864591
 H          0.9770523719        4.0017048694        0.7075915505
 H          2.7043352335        2.3772943799        1.4351880903
 H          4.2301827175        0.3022114523        2.2352888809
 H          2.5302701699       -0.1248813743        3.8141236264
 H          0.2766922842       -1.0342201880        4.2512413149
 H         -1.0088763246       -2.0857322326        2.4246739715
 C         -0.3307974883       -2.4195981351       -0.1228477711
 H         -0.6796098360       -3.4028728169        0.2233760438
 C          0.3907007278       -2.5925835081       -1.4418871019
 C          1.3197431978       -3.7513418903       -1.6381175292
 C          0.0009453791       -3.7182455295       -2.3495815708
 H         -0.0074300143       -3.5424813311       -3.4148572836
 H         -0.7809744655       -4.3825693070       -2.0108356295
 H          1.4350721525       -4.4423560550       -0.8165634499
 H          2.2225369176       -3.5967652605       -2.2099133721
 H          0.6519603407       -1.6481064983       -1.9054338989
 O         -0.3255622741        0.3677879974       -0.8215967841
