  62
        -98.93087422
 C         -2.4149942306       -0.6479164635        0.4015435432
 C         -3.0792264272        0.3990871611        1.1039879412
 C         -4.5287447181        0.5219945906        0.9150113241
 C         -5.1592461267       -0.3549369753        0.1145027044
 C         -6.6235969130       -0.3286140222       -0.2110467702
 C         -6.8966086491        0.5058299514       -1.4703456748
 C         -6.2261130844        1.8796387303       -1.4581349089
 H         -5.1419585133        1.7480958442       -1.4878616849
 H         -6.5128326863        2.3895640330       -2.3803557249
 C         -6.5958647327        2.7560649289       -0.2532437891
 H         -6.8107050920        3.7662779836       -0.6079257670
 H         -7.5046919512        2.3773077114        0.2157423284
 C         -5.4956903707        2.8800609380        0.8027311737
 H         -4.5569796222        3.1691766426        0.3231455878
 H         -5.7726882707        3.6840613064        1.4898595153
 C         -5.2375568936        1.6261030986        1.6476230173
 H         -6.1785628732        1.2655324660        2.0683209099
 H         -4.5781109357        1.9103462462        2.4727591572
 H         -6.5287382626       -0.0466695363       -2.3379697727
 H         -7.9761550158        0.6264977641       -1.5768216325
 H         -6.9559617057       -1.3533501367       -0.3852253338
 H         -7.1701646488        0.0818358428        0.6358319310
 O         -4.5055651522       -1.3470775077       -0.5336940867
 C         -3.1293632294       -1.5185824030       -0.4263336250
 O         -2.7141297033       -2.4627873912       -1.1240940772
 O         -2.4780651891        1.2048555179        1.8661464361
 C         -0.9226095410       -0.7328184013        0.6560720098
 C         -0.0085952407       -0.4313715373       -0.5117028664
 C         -0.3664896537       -0.5686367173       -1.8456963713
 C          0.5493431585       -0.2990815127       -2.8493533810
 C          1.8374157007        0.0993859324       -2.5477933566
 C          2.2049206483        0.2533127965       -1.2150149607
 C          1.2805763257       -0.0008648901       -0.2148391720
 H          1.5788466620        0.1374653029        0.8137867487
 N          3.4945101061        0.6914133581       -0.8719809912
 S          4.2040385078        0.0800546194        0.5329165583
 O          4.0202268730       -1.3521359553        0.5998079589
 O          3.7244195104        0.8369713226        1.6621941931
 C          5.9154509417        0.4738390367        0.2262279523
 C          6.3629306971        1.7518719175        0.5031704098
 C          7.6849589998        2.0706425175        0.2367260036
 C          8.5324164178        1.1123784614       -0.2995444592
 C          8.0694658151       -0.1665626661       -0.5700708502
 C          6.7480356089       -0.4919476674       -0.3070509033
 H          6.3467172462       -1.4753418462       -0.4925787158
 H          8.7315715011       -0.9102528744       -0.9833275202
 H          9.5611111119        1.3630991226       -0.5050199930
 H          8.0493881551        3.0627904133        0.4487621538
 H          5.6703916193        2.4596827688        0.9280282312
 H          4.1353893674        0.6729878216       -1.6536024880
 H          2.5499818806        0.2977757360       -3.3338882931
 H          0.2534465414       -0.4144742902       -3.8812818738
 H         -1.3562786028       -0.9068481885       -2.1030128543
 H         -0.7546483660        0.0785303725        1.3846124029
 C         -0.4115161524       -1.9980935714        1.3485316717
 C         -1.3150690247       -2.9815617498        2.0247183736
 C         -0.5629600097       -3.3788236555        0.7900958290
 H          0.2720047186       -4.0571606575        0.8906330015
 H         -1.1244447839       -3.4921151010       -0.1224465579
 H         -1.0127033452       -3.3885573598        2.9783585026
 H         -2.3806967756       -2.8274373641        1.9309574545
 H          0.5341376885       -1.8068414329        1.8497819786
