  62
        -98.94289582
 C         -2.6861895905       -1.2078605441        0.1752323174
 C         -2.6869982450       -0.2632903639       -0.8791627165
 C         -3.8419726071        0.6455529900       -0.9206825535
 C         -4.8140607207        0.5216652117        0.0011765337
 C         -6.0131661340        1.4175693165        0.1090452400
 C         -5.7371897281        2.6024186796        1.0456153427
 C         -4.4266727534        3.3322428124        0.7503520750
 H         -4.3530141302        4.1644506407        1.4537864554
 H         -3.5894581474        2.6616592750        0.9578925431
 C         -4.3050230993        3.8637922623       -0.6846191993
 H         -3.9171269066        4.8839028286       -0.6480944766
 H         -5.2914204508        3.9088571334       -1.1477038146
 C         -3.3609807387        3.0602582093       -1.5809955839
 H         -2.3988855629        2.9305245803       -1.0786343759
 H         -3.1801207677        3.6396824170       -2.4902547900
 C         -3.8679177254        1.6782528122       -2.0120169471
 H         -4.8701874780        1.7684893501       -2.4355223723
 H         -3.1965659683        1.3064291277       -2.7915632364
 H         -6.5708394989        3.3029677776        0.9705310522
 H         -5.6975784164        2.2301265770        2.0719342835
 H         -6.2811865407        1.7785675778       -0.8819229473
 H         -6.8435922673        0.8343042492        0.5104323254
 O         -4.7887656043       -0.4148675237        0.9841111545
 C         -3.7212583982       -1.2879200320        1.1072349872
 O         -3.8086345711       -2.0767165075        2.0701268419
 H          0.7863469045       -2.0191619550       -1.1860995206
 C          0.8218273693       -1.4090698601       -0.2971907985
 C         -0.2588844162       -1.3830694402        0.5682261961
 C         -0.1799687702       -0.5843655800        1.7068157339
 C          0.9465218205        0.1722002384        1.9636368711
 C          2.0181809487        0.1559693300        1.0870174446
 C          1.9519846548       -0.6385631751       -0.0482096089
 N          3.0278110573       -0.6456140258       -0.9501946007
 S          4.5823758993       -0.8532413964       -0.3597719778
 O          5.3408816435       -1.3816045966       -1.4727446248
 O          4.5872472591       -1.6409496490        0.8511711228
 C          5.1411353496        0.8013957072       -0.0126982376
 C          5.6600962604        1.1037445165        1.2309712841
 C          6.1056306156        2.3933403392        1.4762375560
 C          6.0256852873        3.3523683431        0.4782775441
 C          5.5032356453        3.0321718439       -0.7660787531
 C          5.0575705334        1.7445168424       -1.0181621919
 H          4.6477662869        1.4562744363       -1.9718234401
 H          5.4416782158        3.7810490613       -1.5392680333
 H          6.3724165168        4.3553422663        0.6711710772
 H          6.5120890986        2.6440229679        2.4429303973
 H          5.6971000726        0.3272352164        1.9783996681
 H          2.8693604732       -1.2055282889       -1.7749283871
 H          2.8979486084        0.7489255359        1.2767602229
 H          0.9912385481        0.7850353959        2.8512697885
 H         -1.0210485156       -0.5670509331        2.3873120388
 C         -1.5235164180       -2.1730697986        0.3332160420
 H         -1.7331003070       -2.7541492957        1.2424955160
 C         -1.4541629616       -3.1224993069       -0.8437399529
 C         -0.7487696273       -4.4368757784       -0.7015203692
 C         -2.2438356110       -4.3943634837       -0.7968480131
 H         -2.7134819205       -4.7432302260       -1.7042927794
 H         -2.8211137999       -4.5886002598        0.0954207435
 H         -0.3070725895       -4.6651661644        0.2569228475
 H         -0.1923176618       -4.8202851082       -1.5437007972
 H         -1.3956923511       -2.6096815343       -1.7966832459
 O         -1.7758136941       -0.1803480589       -1.7434466624
