  62
        -98.94939030
 C         -0.4518629748       -1.8403627823       -0.1319345597
 C         -1.6274660240       -1.9470533658        0.6462311510
 C         -2.7743626966       -1.1578666089        0.1844747318
 C         -2.6570944794       -0.3910494183       -0.9151757280
 C         -3.7621683420        0.4072131188       -1.5551973372
 C         -4.0116258155        1.7867576979       -0.9318845567
 C         -4.6558277147        1.7729740158        0.4543051737
 H         -4.9588187174        2.7982247348        0.6768025542
 H         -5.5604412130        1.1642716032        0.4298462641
 C         -3.7341518726        1.2787446181        1.5784090130
 H         -3.8096308339        1.9519614677        2.4359692532
 H         -2.6909220629        1.3118751011        1.2525013524
 C         -4.0515078883       -0.1298149029        2.0811024529
 H         -5.0334538680       -0.1344659358        2.5604564335
 H         -3.3068282671       -0.3966007210        2.8358921724
 C         -4.0357251759       -1.2099404826        0.9920857126
 H         -4.0766302929       -2.1872506729        1.4799002624
 H         -4.9078559466       -1.1044411549        0.3465533032
 H         -3.0657224170        2.3290884806       -0.8805650171
 H         -4.6721025275        2.3341128562       -1.6087269861
 H         -3.4746496331        0.5483564198       -2.5992790573
 H         -4.6859714504       -0.1722803939       -1.5270996667
 O         -1.4995640801       -0.2944846648       -1.6212044087
 C         -0.3660507679       -1.0002324717       -1.2422190296
 O          0.6277925511       -0.8056946988       -1.9656622602
 H          0.8134449813       -0.1651438890        1.2611844099
 C          1.8051786121       -0.5166815662        1.0169761192
 C          1.9753387554       -1.7837409256        0.4759821688
 C          3.2664902364       -2.2136837618        0.1909257279
 C          4.3512616543       -1.3899470988        0.4337257374
 C          4.1742990210       -0.1194488395        0.9497681578
 C          2.8874003599        0.3187691168        1.2403551487
 N          2.6645563566        1.6022229861        1.7653037692
 S          1.3339348039        2.4831628524        1.2875770002
 O          1.6658510502        3.8460750033        1.6533291103
 O          0.1334811657        1.9582571089        1.8909411708
 C          1.2181879631        2.3776216625       -0.4889119798
 C         -0.0409249675        2.4590842991       -1.0441550790
 C         -0.1769601083        2.4483634291       -2.4215096489
 C          0.9507748814        2.3522821725       -3.2195462296
 C          2.2105174220        2.2743602859       -2.6489699604
 C          2.3514631528        2.2941680259       -1.2711321305
 H          3.3245088333        2.2319694586       -0.8121214811
 H          3.0852909519        2.1909062685       -3.2735876009
 H          0.8452451709        2.3297501424       -4.2927130595
 H         -1.1591416087        2.4992486864       -2.8639929183
 H         -0.8887998673        2.5128198666       -0.3783598884
 H          3.4853752650        2.1845942884        1.8443239188
 H          5.0191604893        0.5276459929        1.1303992775
 H          5.3476841951       -1.7382013060        0.2088859567
 H          3.4224683089       -3.1968057113       -0.2218571325
 C          0.7647591177       -2.6565109289        0.2560093193
 H          0.5062527796       -3.1288441199        1.2166829993
 C          1.0034395302       -3.7471827580       -0.7710028511
 C          1.5279875942       -5.0884413066       -0.3552385318
 C          0.0984547635       -4.9415119005       -0.7787879608
 H         -0.2065197159       -5.3526107912       -1.7293711808
 H         -0.6687212259       -4.9834598829       -0.0192276004
 H          1.7285330653       -5.2454415263        0.6939597981
 H          2.2055066852       -5.6054388645       -1.0181434023
 H          1.3139644384       -3.3487678269       -1.7305065812
 O         -1.7201530613       -2.6826889963        1.6674324508
