  62
        -98.94714016
 C         -1.6374216471       -1.5249044987       -0.2454018128
 C         -2.8345982394       -1.2242546365        0.4530038983
 C         -3.6194273290       -0.0955982005       -0.0624796496
 C         -3.1725596493        0.5797687335       -1.1368861058
 C         -3.8444442116        1.7818329327       -1.7342335293
 C         -3.3232858878        3.0882069860       -1.1180390889
 C         -3.2741318786        3.0759244496        0.4096395083
 H         -2.5419438755        2.3353133409        0.7396847722
 H         -2.9128417689        4.0551268982        0.7311692770
 C         -4.6238276543        2.7904555750        1.0832078937
 H         -4.7598893620        3.4944072939        1.9068799013
 H         -5.4354087365        2.9614924642        0.3748237986
 C         -4.7563595301        1.3855719998        1.6736126063
 H         -5.6470782474        1.3660214769        2.3072906233
 H         -3.8957952114        1.1731886398        2.3129200107
 C         -4.8939484572        0.2459197157        0.6561748815
 H         -5.1807614482       -0.6563278822        1.2041911248
 H         -5.6879658440        0.4812165663       -0.0555139286
 H         -3.9630808406        3.9054306247       -1.4561448734
 H         -2.3146570370        3.2729730681       -1.4938160090
 H         -4.9187887340        1.7005506988       -1.5796619244
 H         -3.6430556254        1.7905564300       -2.8069445762
 O         -2.0244559988        0.2590493466       -1.7844049864
 C         -1.2247515609       -0.7935276361       -1.3588140805
 O         -0.2053651396       -0.9622835011       -2.0545346177
 O         -3.2277344200       -1.8724299905        1.4586824957
 C         -0.7664223756       -2.6517188563        0.2882572172
 C          0.4822576682       -2.0163324978        0.8459560794
 C          0.4536356297       -1.4561734882        2.1204786524
 C          1.5465842461       -0.7706071028        2.6169048275
 C          2.6823827320       -0.6057021337        1.8427639734
 C          2.7136545984       -1.1503730322        0.5662205362
 C          1.6306691642       -1.8721293074        0.0834356870
 H          1.6694524685       -2.2810504162       -0.9133769284
 N          3.8383211199       -0.9297169760       -0.2507935638
 S          4.3771726519        0.6540464892       -0.3408546216
 O          4.9440304205        0.7955129796       -1.6642471477
 O          5.2850122017        0.9090470482        0.7514992669
 C          2.9322170297        1.6895941668       -0.1596784171
 C          2.9394835920        2.6925244767        0.7891498439
 C          1.8183724348        3.4940375958        0.9301972473
 C          0.7096526930        3.2773116818        0.1266395303
 C          0.7193181989        2.2675518861       -0.8223995332
 C          1.8392074988        1.4660103146       -0.9727426862
 H          1.8438630008        0.6697013222       -1.7002892898
 H         -0.1415554779        2.0800536559       -1.4450785427
 H         -0.1677257407        3.8947309665        0.2405080528
 H          1.8095603201        4.2802658923        1.6677856915
 H          3.8188697139        2.8193829646        1.3996359019
 H          3.7397240527       -1.3213537742       -1.1767593559
 H          3.5382087228       -0.0572814761        2.2021933526
 H          1.5117818262       -0.3487227222        3.6096773355
 H         -0.4461842178       -1.5529811306        2.7116641495
 H         -1.3334127497       -3.0904249656        1.1197909152
 C         -0.5073402704       -3.7261554051       -0.7458359246
 C          0.0554711698       -5.0436566137       -0.3057601213
 C         -1.3692520732       -4.9514316929       -0.7604939114
 H         -1.6360010787       -5.3815342437       -1.7143089459
 H         -2.1493013465       -5.0233751231       -0.0168830181
 H          0.7689465047       -5.5407343396       -0.9451842848
 H          0.2438847849       -5.1762277594        0.7488741971
 H         -0.1928096927       -3.3363980845       -1.7061649452
