  62
        -98.93908770
 C          1.8863036872        0.1621728145       -0.0533949653
 C          2.9049473490        0.9919821434        0.4677526720
 C          4.2359502012        0.3818942283        0.6307166725
 C          4.4175988810       -0.9059024598        0.2826627423
 C          5.6359235110       -1.8008853259        0.3774519517
 C          7.0212060322       -1.2124152348        0.6320796720
 C          7.5750728386       -0.3631854767       -0.5115163384
 H          7.7986454485       -1.0207621463       -1.3554472180
 H          8.5149884682        0.0840957165       -0.1808246167
 C          6.6512555948        0.7405037317       -1.0204761269
 H          5.7476034052        0.2966054489       -1.4433170155
 H          7.1660179406        1.2580724565       -1.8345918020
 C          6.2514481399        1.7882905573        0.0163899449
 H          5.7311462692        2.5915161048       -0.5122249360
 H          7.1470298852        2.2141995971        0.4728723704
 C          5.3195158935        1.2912699773        1.1350469557
 H          4.8134962798        2.1613999157        1.5633777945
 H          5.8809876724        0.8142055177        1.9346940861
 H          7.6979350341       -2.0600343049        0.7706431053
 H          7.0270239291       -0.6509378816        1.5615909879
 H          5.6563598411       -2.3742061555       -0.5548641297
 H          5.4133909796       -2.5193515868        1.1742372311
 O          3.3986501838       -1.6698195016       -0.2116918217
 C          2.1209749069       -1.1673021843       -0.3974584185
 O          1.3096822321       -1.9889084293       -0.8642822331
 O          2.7094391620        2.1926403368        0.7978587144
 C          0.4953557656        0.7391732305       -0.2467406615
 C         -0.5048192614       -0.0650625808        0.5449135934
 C         -0.2863927455       -0.2372079004        1.9105285182
 C         -1.1537128033       -0.9899334656        2.6763164415
 C         -2.2674261228       -1.5770612844        2.1003016607
 C         -2.4996824827       -1.4062034188        0.7418485323
 C         -1.6241787451       -0.6480253931       -0.0261132512
 H         -1.8220754334       -0.5502266147       -1.0797704438
 N         -3.6144768277       -2.0028507984        0.1306030118
 S         -4.5684216149       -1.1287311555       -0.9268702562
 O         -5.7883439000       -1.8982573185       -1.0333793881
 O         -3.8628677626       -0.8793053807       -2.1571100597
 C         -4.8879040435        0.4009878215       -0.0678697262
 C         -5.8713679586        0.4122402062        0.9023534396
 C         -6.0863389776        1.5733438236        1.6263585565
 C         -5.3111774731        2.6956553240        1.3756727809
 C         -4.3286635137        2.6680408899        0.3982997384
 C         -4.1116711527        1.5105652331       -0.3328515556
 H         -3.3609738319        1.4527523244       -1.1033452929
 H         -3.7282814220        3.5422746839        0.2028609007
 H         -5.4749337454        3.5984048897        1.9427804940
 H         -6.8533378532        1.5998140409        2.3835361490
 H         -6.4582747682       -0.4783409044        1.0586337842
 H         -4.1861851789       -2.5521602206        0.7556019921
 H         -2.9429865474       -2.1733499004        2.6946081100
 H         -0.9652243271       -1.1207671483        3.7312064954
 H          0.5854193522        0.2194622814        2.3590212797
 H          0.5403212194        1.7519124683        0.1805704317
 C          0.1694038329        0.8481172771       -1.7206521569
 C         -0.7565017465        1.9195035122       -2.2106561857
 C          0.7111392020        2.0065168477       -2.5013570057
 H          1.0517234319        1.8331537073       -3.5111699321
 H          1.2962678542        2.7370545921       -1.9619773128
 H         -1.4317139569        1.6859218152       -3.0208876948
 H         -1.1593448406        2.6015947618       -1.4769864608
 H          0.1450337179       -0.1153294567       -2.2184112456
