  62
        -98.94847975
 C          0.8307647143        1.2141171735        0.5700208374
 C          1.2058546934        0.5361534576       -0.6145516950
 C          2.1483452845       -0.5753072914       -0.4333705141
 C          2.4800684450       -0.9729240383        0.8077265085
 C          3.4264430966       -2.0898883608        1.1557181887
 C          4.9000476785       -1.6599208624        1.1803947494
 C          5.5213753512       -1.4035068519       -0.1933958219
 H          6.6002493435       -1.3234965974       -0.0459241193
 H          5.3441884907       -2.2654674548       -0.8371694048
 C          5.0224242336       -0.1281735506       -0.8873802859
 H          5.8750196417        0.4221150325       -1.2918185755
 H          4.5428046476        0.5227665942       -0.1525767069
 C          4.0510891788       -0.3712399645       -2.0430346316
 H          4.5637469208       -0.9087274696       -2.8436090054
 H          3.7392621666        0.5999310790       -2.4352183758
 C          2.7890008357       -1.1556125686       -1.6572665668
 H          2.0700219731       -1.0743966098       -2.4751070687
 H          3.0348369675       -2.2048867783       -1.5015843397
 H          5.4653266968       -2.4571116920        1.6687963595
 H          4.9923954331       -0.7625999154        1.7968728937
 H          3.3050591918       -2.9141180730        0.4529011797
 H          3.1502738879       -2.4354436932        2.1543604271
 O          1.9683097962       -0.3898211817        1.9264409654
 C          1.1908062187        0.7542072326        1.8356731156
 O          0.8816132296        1.2559513131        2.9369535725
 O          0.7989562672        0.8540523998       -1.7607116565
 C          0.0165494268        2.4916638542        0.4830607189
 C         -1.3071110613        2.2377699075       -0.1937237927
 C         -1.8048376501        3.0255820491       -1.2235337017
 C         -3.0398103447        2.7468707418       -1.7825932587
 C         -3.8013090780        1.6867459179       -1.3277921531
 C         -3.3162360564        0.8993447592       -0.2886931363
 C         -2.0781460512        1.1774692427        0.2670893709
 H         -1.7117059518        0.5686922261        1.0817154598
 N         -4.0779353851       -0.1649261990        0.2133642804
 S         -3.3606665644       -1.4969254298        0.9007567070
 O         -4.3960771684       -2.5098755299        0.8664196760
 O         -2.8481501763       -1.1808624253        2.2111558086
 C         -2.0343444115       -2.0056532668       -0.1780768557
 C         -0.9077134853       -2.5607677924        0.3922459023
 C          0.0781219025       -3.0780820831       -0.4315727494
 C         -0.0727353691       -3.0207445068       -1.8076334310
 C         -1.2001095714       -2.4411086054       -2.3663532950
 C         -2.1968970447       -1.9373360277       -1.5471286633
 H         -3.0879433046       -1.4957135084       -1.9620998275
 H         -1.3087809115       -2.3846216491       -3.4373403746
 H          0.6928805235       -3.4295133713       -2.4474845028
 H          0.9542767015       -3.5270201185        0.0070290881
 H         -0.8224268340       -2.5733890901        1.4680177809
 H         -4.9132653066       -0.3934463106       -0.3041747070
 H         -4.7650705303        1.4711870359       -1.7627637884
 H         -3.4134467192        3.3630894453       -2.5860186565
 H         -1.2260770934        3.8565142278       -1.5909642522
 H         -0.1915945998        2.7896705307        1.5217044519
 C          0.8417673489        3.5755683451       -0.1809076272
 C          0.6183804133        5.0161593912        0.1643180010
 C          1.8549634985        4.3148020533        0.6383031216
 H          2.8009971976        4.5691318414        0.1842518876
 H          1.9296702600        4.0555461979        1.6848846653
 H          0.7189941058        5.7562075161       -0.6151860685
 H         -0.1448313546        5.2429979650        0.8933665134
 H          1.1110106629        3.3274863020       -1.2011444731
