  62
        -98.94849055
 C         -2.3528669954       -0.6339556418        0.1710936324
 C         -1.5430961207       -0.0223751608       -0.8154296704
 C         -1.6937252031        1.4322101830       -0.9656132213
 C         -2.5516966439        2.0934805188       -0.1693765629
 C         -2.8059050152        3.5720852270       -0.2147905135
 C         -1.8981576192        4.3375926695        0.7563057412
 C         -0.4171630515        3.9759718213        0.6402624972
 H          0.1293997563        4.6223987042        1.3314179295
 H         -0.2623251272        2.9497513350        0.9829140020
 C          0.1677081431        4.1275078151       -0.7708705400
 H          1.1421717564        4.6141982081       -0.6910577347
 H         -0.4717530056        4.7746992313       -1.3731935004
 C          0.3920656230        2.8005533393       -1.4984209706
 H          0.9099829661        2.1127894335       -0.8253492489
 H          1.0480510865        2.9844273418       -2.3538318713
 C         -0.8699726739        2.1059684643       -2.0269096845
 H         -1.4755750138        2.8203494379       -2.5893443445
 H         -0.5522543164        1.3120018583       -2.7090545614
 H         -2.0277381859        5.4068775493        0.5758364146
 H         -2.2222314375        4.1237284738        1.7776174313
 H         -2.6482551240        3.9284363956       -1.2311501348
 H         -3.8468823849        3.7469330860        0.0642425334
 O         -3.2841002595        1.4805664878        0.7964829204
 C         -3.1811082289        0.1157907832        1.0085186042
 O         -3.8731853887       -0.3087343830        1.9569074334
 O         -0.7421787512       -0.6534924531       -1.5536703818
 C         -2.2806175340       -2.1278453174        0.4434243554
 C         -0.8376562691       -2.5710893207        0.4444131775
 C         -0.3455672216       -3.6345640688       -0.3010060520
 C          0.9998296808       -3.9589333483       -0.2565796867
 C          1.8840990744       -3.2162272372        0.5036391872
 C          1.4003504745       -2.1493152289        1.2523386111
 C          0.0468526753       -1.8598277281        1.2466085662
 H         -0.3157948728       -1.0298357673        1.8364586674
 N          2.2606067371       -1.3311608307        2.0161910772
 S          2.3928804705        0.2712643515        1.5370745074
 O          3.3139309161        0.8718059119        2.4789119110
 O          1.0853571422        0.8676184515        1.4571258102
 C          3.1697173120        0.1962916593       -0.0682361295
 C          2.4363989838       -0.2168854817       -1.1628173411
 C          3.0771414930       -0.3221847285       -2.3886402664
 C          4.4250231631       -0.0195581697       -2.4995366483
 C          5.1465040165        0.3914028420       -1.3885674132
 C          4.5157632162        0.4962354038       -0.1599343869
 H          5.0330234167        0.8134096338        0.7312583183
 H          6.1947353433        0.6281724902       -1.4752405814
 H          4.9147987243       -0.1037732129       -3.4569108162
 H          2.5087656606       -0.6425798064       -3.2470083871
 H          1.3851675922       -0.4419757728       -1.0647108997
 H          3.1894112029       -1.7148327202        2.1292756384
 H          2.9382667358       -3.4498749668        0.5139629822
 H          1.3677218472       -4.7881236323       -0.8414132158
 H         -1.0092702626       -4.1976616409       -0.9361335256
 H         -2.6683980659       -2.2479705071        1.4692718921
 C         -3.1715062758       -2.9680353464       -0.4605232709
 C         -4.3864997937       -2.3812029299       -1.1133651774
 C         -3.2045433289       -2.7728903417       -1.9455487414
 H         -3.2911475820       -3.6454169213       -2.5763528264
 H         -2.5839428029       -1.9930634507       -2.3569743059
 H         -5.2797577115       -2.9855744795       -1.1659461554
 H         -4.5810758813       -1.3296566999       -0.9581289397
 H         -3.2721570941       -3.9863916059       -0.0979642999
