  62
        -98.94129210
 C         -1.0182757967       -1.3038864691       -0.0250969707
 C         -1.5814329504       -0.3348698108        0.8361086182
 C         -2.4870867648        0.6469520780        0.2174392109
 C         -2.7288312391        0.5783012980       -1.1028991940
 C         -3.5633517996        1.5030147339       -1.9540251741
 C         -4.9037015499        1.9838992843       -1.3823929887
 C         -5.6304871100        0.9649988327       -0.4922060305
 H         -6.6589095642        0.8588712600       -0.8421302780
 H         -5.1536633237       -0.0127699215       -0.5795827894
 C         -5.6744245669        1.3824850860        0.9794982552
 H         -5.9113744799        2.4472356809        1.0340463525
 H         -6.4845888150        0.8411433011        1.4738136593
 C         -4.3980137607        1.1121752407        1.7746324521
 H         -4.2722626173        0.0356135200        1.9171449505
 H         -4.5194308653        1.5556046944        2.7657451501
 C         -3.1010392318        1.6521545329        1.1498709878
 H         -3.2650917176        2.6086863520        0.6588558549
 H         -2.3764358559        1.7967229852        1.9561195624
 H         -4.7508434386        2.9041023936       -0.8201457494
 H         -5.5348494597        2.2395496506       -2.2353064090
 H         -2.9452259737        2.3699495320       -2.2085197416
 H         -3.7371869002        0.9531018433       -2.8824971995
 O         -2.1809495887       -0.3868072195       -1.8942086695
 C         -1.3031000550       -1.3337350698       -1.3894486922
 O         -0.8640188658       -2.1318524148       -2.2397084210
 H          0.9957276710       -0.0714523526       -0.5851100364
 C          1.7118644451       -0.8773586090       -0.5817195748
 C          1.3462757899       -2.1167017836       -0.0771616062
 C          2.2796879296       -3.1468906394       -0.1199489354
 C          3.5334737130       -2.9341024368       -0.6654153414
 C          3.8913982235       -1.6957544186       -1.1673858659
 C          2.9659973846       -0.6589484367       -1.1294069381
 N          3.2774988930        0.6048563182       -1.6432806225
 S          2.4960901299        1.9848964787       -1.1362065731
 O          1.1455151754        2.0259470171       -1.6414271595
 O          3.3654777921        3.0556142667       -1.5772894706
 C          2.4959948427        1.9082873959        0.6454710292
 C          3.7138975003        1.8778798984        1.2966294311
 C          3.7321974336        1.7860137543        2.6785091145
 C          2.5389908563        1.7175999363        3.3823546142
 C          1.3247707348        1.7563100173        2.7153094436
 C          1.3019365044        1.8576973847        1.3337594404
 H          0.3731969276        1.8837026535        0.7842249799
 H          0.3923185905        1.6829128282        3.2519928385
 H          2.5530067447        1.6337937690        4.4575693985
 H          4.6741218223        1.7610100171        3.2022721639
 H          4.6210200704        1.9366114588        0.7177560503
 H          4.2408836069        0.7585824729       -1.8970828579
 H          4.8682198673       -1.5332366914       -1.5956852324
 H          4.2455053699       -3.7445636902       -0.6979066362
 H          2.0203904023       -4.1185838522        0.2677006910
 C         -0.0214822253       -2.2940867500        0.5409828242
 H          0.0603628367       -2.0447416066        1.6107298715
 C         -0.5400906721       -3.7135248632        0.4128435332
 C         -0.2751648489       -4.7264266360        1.4855200659
 C         -1.6512998687       -4.1598878795        1.3142702421
 H         -2.4269486528       -4.7895413660        0.9049043769
 H         -2.0069393357       -3.4505551847        2.0474880661
 H         -0.1059140877       -5.7521036023        1.1939057619
 H          0.2935613070       -4.4096652454        2.3467260316
 H         -0.5669397873       -4.0517095741       -0.6169599427
 O         -1.3236064164       -0.2775575974        2.0686627328
