  62
        -98.94775155
 C          0.7808197312        1.2685113074        0.0220946161
 C          1.4877552647        0.6106625661        1.0557796719
 C          2.4051672944       -0.4500241823        0.6246219760
 C          2.4775137001       -0.7807037992       -0.6774979409
 C          3.3820824317       -1.8223735417       -1.2775994199
 C          4.8022065104       -1.3137433318       -1.5647240986
 C          5.6827614181       -1.1070004818       -0.3313906028
 H          5.6716311707       -2.0107290448        0.2786084582
 H          6.7053590643       -0.9681676497       -0.6879501437
 C          5.2951983239        0.1028194887        0.5306123015
 H          6.1937712048        0.6659598761        0.7928866197
 H          4.6556067846        0.7736600583       -0.0476817145
 C          4.5857552983       -0.2498542320        1.8382423804
 H          5.2656362287       -0.8077958420        2.4861383224
 H          4.3242416819        0.6811395360        2.3477890659
 C          3.3004481432       -1.0680646863        1.6560229013
 H          2.7603410835       -1.0749713638        2.6062642215
 H          3.5486436474       -2.0936918189        1.3841753796
 H          5.2875790144       -2.0495136760       -2.2099771139
 H          4.7325056588       -0.3774486857       -2.1230274712
 H          3.4349368907       -2.6911062435       -0.6220049345
 H          2.9268517765       -2.1195901041       -2.2240579601
 O          1.7079784788       -0.1875695910       -1.6277949066
 C          0.8722514203        0.8733747673       -1.3124946069
 O          0.2745877062        1.3640991859       -2.2885908018
 O          1.3686292206        0.9040918684        2.2767022129
 C         -0.1002711677        2.4530849534        0.3682901219
 C         -1.5086226418        2.2568533853       -0.1339202815
 C         -2.2553775916        3.2753841226       -0.7123608835
 C         -3.5505142610        3.0376155483       -1.1381977297
 C         -4.1285959548        1.7912629266       -0.9891245383
 C         -3.3914549892        0.7655964628       -0.4060402140
 C         -2.0948930038        1.0067172523        0.0170237745
 H         -1.5268468869        0.2111741029        0.4766939516
 N         -3.9377183544       -0.5155339877       -0.2738972725
 S         -3.3925012403       -1.6099593399        0.8536386514
 O         -4.4161210616       -2.6340628231        0.8702806154
 O         -3.1106574619       -0.9858824255        2.1254616834
 C         -1.9139141166       -2.3000791633        0.1449456061
 C         -1.9428686969       -2.6982323995       -1.1765868393
 C         -0.8202233506       -3.3024494193       -1.7179183037
 C          0.3018204886       -3.5075178221       -0.9302248750
 C          0.3173263641       -3.0968246986        0.3932058261
 C         -0.7997555801       -2.4847115947        0.9380870530
 H         -0.8219051778       -2.1393055082        1.9603379446
 H          1.1903390479       -3.2488237956        1.0069466292
 H          1.1692346705       -3.9913898856       -1.3498488434
 H         -0.8239073639       -3.6142872720       -2.7499796456
 H         -2.8358132165       -2.5315574642       -1.7558361870
 H         -4.9174868950       -0.6100218091       -0.4923017660
 H         -5.1377108069        1.6064240198       -1.3238696510
 H         -4.1187806068        3.8358899619       -1.5909944697
 H         -1.8233081052        4.2549770242       -0.8341446710
 H         -0.1345207186        2.4832986525        1.4685663501
 C          0.5436516998        3.7307280614       -0.1335658649
 C          0.3647121621        5.0190385078        0.6110142634
 C          1.6868933346        4.3148325546        0.6390535792
 H          2.5142711522        4.7436619130        0.0937094227
 H          1.9788876155        3.8081149474        1.5474886252
 H          0.2866922298        5.9355732920        0.0457226217
 H         -0.2374945317        4.9994748199        1.5068662434
 H          0.6011814930        3.7663758637       -1.2161078839
