  62
        -98.94775275
 C         -0.7812764619       -1.2717517388        0.0240369006
 C         -1.4928939615       -0.6157464477        1.0556332302
 C         -2.4096207502        0.4444245832        0.6218622496
 C         -2.4734903194        0.7796912529       -0.6795301006
 C         -3.3710215780        1.8266514337       -1.2807705412
 C         -4.7888487385        1.3220521452       -1.5853423114
 C         -5.6800008191        1.1055901966       -0.3614081116
 H         -5.6757465683        2.0053048467        0.2545651881
 H         -6.6991168892        0.9674110076       -0.7280104319
 C         -5.2977439407       -0.1089848936        0.4962454389
 H         -4.6515101413       -0.7746843345       -0.0805935207
 H         -6.1974404614       -0.6757887825        0.7465429788
 C         -4.6011990707        0.2364512461        1.8127859390
 H         -5.2878129603        0.7902792370        2.4570579386
 H         -4.3444401119       -0.6973982841        2.3195623893
 C         -3.3143526598        1.0563009746        1.6486479791
 H         -3.5601271686        2.0835933348        1.3809958987
 H         -2.7836503801        1.0567823443        2.6041520793
 H         -4.7150240494        0.3905421149       -2.1510720011
 H         -5.2679504775        2.0638764055       -2.2283516918
 H         -3.4292247173        2.6901913340       -0.6188499815
 H         -2.9061114074        2.1307019029       -2.2203280911
 O         -1.7004284498        0.1874749517       -1.6275306701
 C         -0.8695424810       -0.8767919391       -1.3108789495
 O         -0.2717107113       -1.3695658201       -2.2858751892
 H          1.5203488892       -0.2040268612        0.4466338810
 C          2.0902608984       -1.0038545820       -0.0031506986
 C          1.5084356371       -2.2580902814       -0.1355198784
 C          2.2574705161       -3.2811015124       -0.7030535478
 C          3.5500987565       -3.0437923940       -1.1366519075
 C          4.1236364478       -1.7932286046       -1.0058778877
 C          3.3842262888       -0.7630398636       -0.4340232983
 N          3.9246449202        0.5227816559       -0.3193712786
 S          3.4031816411        1.6045372168        0.8329596309
 O          4.4289168122        2.6266224957        0.8446180209
 O          3.1432264400        0.9631409275        2.1008026211
 C          1.9131106621        2.3081536983        0.1622893303
 C          0.8086412120        2.4676086597        0.9742676199
 C         -0.3174285272        3.0898483208        0.4602607093
 C         -0.3203019963        3.5357997604       -0.8518126208
 C          0.7920682038        3.3557441889       -1.6590604704
 C          1.9234658829        2.7411216378       -1.1485184499
 H          2.8094689530        2.5932730766       -1.7432310996
 H          0.7815435945        3.6955128986       -2.6822083505
 H         -1.1943723656        4.0279928313       -1.2471827112
 H         -1.1829764372        3.2220302820        1.0889814590
 H          0.8453150713        2.0958627900        1.9868343200
 H          4.9021262404        0.6170416347       -0.5487250683
 H          5.1309112481       -1.6088033858       -1.3464901775
 H          4.1201035257       -3.8456946848       -1.5808138571
 H          1.8287768750       -4.2638821520       -0.8104929976
 C          0.1022173667       -2.4537021097        0.3729074913
 H          0.1403258663       -2.4789253393        1.4731751613
 C         -0.5418246546       -3.7346763391       -0.1203515585
 C         -0.3606848463       -5.0189277191        0.6307942519
 C         -1.6828732055       -4.3147057076        0.6585733913
 H         -2.5118931058       -4.7465258268        0.1181062512
 H         -1.9721382252       -3.8027349870        1.5649184311
 H         -0.2840488471       -5.9383900993        0.0700524223
 H          0.2438093735       -4.9946315794        1.5249986221
 H         -0.6020340043       -3.7763465094       -1.2025550885
 O         -1.3775320022       -0.9096013474        2.2768034903
