  62
        -98.94010936
 C          2.5252508641        0.1009162347       -0.4841294044
 C          2.2174050806        0.7853460605        0.7145946300
 C          1.7312706189        2.1694266807        0.5746020851
 C          1.5541487195        2.6835585929       -0.6542193278
 C          1.1032461832        4.0672906068       -1.0566893679
 C          0.0122801568        4.7456900269       -0.2223369095
 C         -1.0935509059        3.8090928428        0.2853874327
 H         -2.0653443296        4.2234462959        0.0092754585
 H         -1.0113022802        2.8280728443       -0.1881221220
 C         -1.0666229316        3.6257303907        1.8039538449
 H         -2.0493868417        3.2795171504        2.1318450658
 H         -0.8800103763        4.5918833079        2.2791367626
 C         -0.0409855848        2.6086464236        2.2985463980
 H         -0.3197654910        1.6142225220        1.9400077310
 H         -0.0791566077        2.5865092050        3.3906633497
 C          1.4088393731        2.8761305897        1.8604410223
 H          1.6115915399        3.9428265146        1.7945326289
 H          2.0737472350        2.4415717516        2.6120794520
 H          0.4665836705        5.2554559515        0.6261091803
 H         -0.4271800405        5.5188716567       -0.8555111001
 H          1.9869512925        4.7130438983       -1.0812348958
 H          0.7578001076        3.9601120038       -2.0884423333
 O          1.8326480729        1.9725646579       -1.7870283371
 C          2.3102383982        0.6764124067       -1.7333067967
 O          2.5108500520        0.1532849358       -2.8509646370
 H          0.4067272702       -1.2840511669       -1.0188613984
 C          0.6004842390       -1.9698642465       -0.2052370316
 C          1.9056074613       -2.1655796359        0.2285466294
 C          2.1345587913       -3.0721529440        1.2546179331
 C          1.0729408240       -3.7294619310        1.8536878458
 C         -0.2294946324       -3.4843649781        1.4601434083
 C         -0.4657552654       -2.5947837369        0.4172832458
 N         -1.7706824003       -2.3177788199       -0.0271724811
 S         -2.0748936381       -0.7473095894       -0.5782791003
 O         -1.7717867560       -0.6902035504       -1.9881987967
 O         -1.4144951253        0.2204560499        0.2640513623
 C         -3.8417003541       -0.6595672701       -0.3520167309
 C         -4.3614846139        0.1152284499        0.6668104487
 C         -5.7358979730        0.1544184626        0.8447022626
 C         -6.5612308108       -0.5813087832        0.0079584661
 C         -6.0244616274       -1.3544970791       -1.0112679900
 C         -4.6518517943       -1.3956873729       -1.1965309095
 H         -4.1896474370       -1.9722738399       -1.9808025422
 H         -6.6694042899       -1.9232955393       -1.6613546706
 H         -7.6300117205       -0.5500888952        0.1490453319
 H         -6.1555040867        0.7575283446        1.6335827203
 H         -3.6782837620        0.6713729966        1.2887575767
 H         -2.4814086241       -2.6327309371        0.6193848571
 H         -1.0565809157       -3.9730459486        1.9522503081
 H          1.2624883516       -4.4259652571        2.6563694100
 H          3.1404815527       -3.2508335778        1.5974333713
 C          2.9858601109       -1.3462831840       -0.4364511032
 H          3.0713651031       -1.6725895371       -1.4839176122
 C          4.3401251847       -1.4638602726        0.2289957191
 C          5.2599228096       -2.5910820832       -0.1298350125
 C          5.5704321896       -1.1970492943       -0.5830846718
 H          6.3909162643       -0.6716586797       -0.1181269183
 H          5.4304147528       -0.9521569248       -1.6262142748
 H          4.9176496904       -3.2987528174       -0.8697882724
 H          5.8730880905       -3.0234228724        0.6462769201
 H          4.3304589750       -1.1124789255        1.2540937511
 O          2.3633636020        0.2753108738        1.8564383133
