  62
        -98.93835112
 C         -1.9645753654       -0.8818363136        0.0008403793
 C         -2.2860455671        0.1066027098        0.9575879800
 C         -2.3707264354        1.4908458829        0.4664957960
 C         -2.1219910416        1.7449907536       -0.8297334916
 C         -2.0920481218        3.0788474328       -1.5343291127
 C         -3.1976798689        4.0882819723       -1.1953455109
 C         -4.5609164200        3.4678028571       -0.8561393088
 H         -5.3303854399        3.9505964395       -1.4612064214
 H         -4.5614415306        2.4069466638       -1.1118959462
 C         -4.9448786105        3.6380854679        0.6156070823
 H         -4.6943889648        4.6542497887        0.9273924055
 H         -6.0270137954        3.5229214070        0.7118456491
 C         -4.2973814731        2.6459265783        1.5808993773
 H         -4.7164292601        1.6482966667        1.4244293223
 H         -4.5570763820        2.9467740718        2.5986284242
 C         -2.7677182721        2.5261652905        1.4794871728
 H         -2.3912711027        2.1641065266        2.4404358543
 H         -2.3068958035        3.4889768907        1.2712984698
 H         -3.3008579061        4.7436953917       -2.0617776198
 H         -2.8756530957        4.7146116591       -0.3646409938
 H         -1.1147781800        3.5334105713       -1.3447094758
 H         -2.1301251574        2.8362777115       -2.5991849009
 O         -1.8144866215        0.7597779116       -1.7203149741
 C         -1.7084003080       -0.5643606167       -1.3320240810
 O         -1.4045607884       -1.3486927080       -2.2521008709
 O         -2.4830486595       -0.1548394909        2.1765154637
 C         -1.7972703993       -2.3219054229        0.4492783894
 C         -0.3893650528       -2.7761762405        0.1499980267
 C         -0.0811201304       -4.0144732772       -0.3977321432
 C          1.2324624920       -4.3435432754       -0.6859910288
 C          2.2577962936       -3.4475102170       -0.4485914392
 C          1.9611684892       -2.2133911754        0.1203395279
 C          0.6503532480       -1.8994930045        0.4341637493
 H          0.4326374230       -0.9365691007        0.8746513814
 N          2.9776591174       -1.2820534226        0.4003302198
 S          2.6086487213        0.3605418272        0.2597146141
 O          1.9824193071        0.8002492077        1.4826385003
 O          1.8837052710        0.6182456779       -0.9642879323
 C          4.2548224050        1.0408012476        0.1608452635
 C          4.7782335064        1.3794824230       -1.0723839907
 C          6.0706419558        1.8764684697       -1.1386480558
 C          6.8144932998        2.0218475015        0.0226683619
 C          6.2753366478        1.6779210359        1.2535762171
 C          4.9835071134        1.1819596360        1.3270017255
 H          4.5176897048        0.9100709826        2.2597218781
 H          6.8554968596        1.7947614680        2.1545352708
 H          7.8197910795        2.4083852714       -0.0318606666
 H          6.4904340261        2.1475737613       -2.0938602410
 H          4.1586264375        1.2550822746       -1.9462480967
 H          3.8476639313       -1.5042206891       -0.0650407717
 H          3.2776479943       -3.6962729846       -0.6996225788
 H          1.4579825447       -5.3058209854       -1.1200916386
 H         -0.8702536185       -4.7160149750       -0.6134499434
 H         -1.9323716055       -2.3074766041        1.5417330161
 C         -2.8632659934       -3.2046123862       -0.1651484035
 C         -3.3499270346       -4.4226789002        0.5601993056
 C         -4.2316104611       -3.2168001639        0.4455565262
 H         -5.0882498109       -3.2609032430       -0.2100470964
 H         -4.3849807363       -2.6072719866        1.3242817035
 H         -3.6056498795       -5.2982698491       -0.0171485556
 H         -2.9119692472       -4.6386867392        1.5229005310
 H         -2.7964910901       -3.2402973105       -1.2468943117
