  62
        -98.94161894
 C         -0.7274269702       -1.3907715089        0.4548635204
 C         -1.2422722900       -0.8246035497       -0.7381544901
 C         -2.3621426600        0.1150394704       -0.5572463510
 C         -2.7703711402        0.4551935514        0.6769103387
 C         -3.9139672002        1.3730069317        1.0155904078
 C         -5.2832022602        0.6789599617        1.0070564980
 C         -5.8308244900        0.3436225207       -0.3810254018
 H         -6.8805748200        0.0714762909       -0.2544135818
 H         -5.7997117898        1.2349490803       -1.0084905025
 C         -5.1062693899       -0.8100250798       -1.0886648508
 H         -5.8427352499       -1.4901837501       -1.5227692305
 H         -4.5331695401       -1.3843701693       -0.3571071503
 C         -4.1710546097       -0.3774786107       -2.2186431510
 H         -3.6901034697       -1.2707346610       -2.6257569602
 H         -4.7525995595        0.0845063987       -3.0196770414
 C         -3.0674389597        0.5985121196       -1.7883130515
 H         -2.3290631596        0.6589002789       -2.5923237514
 H         -3.4876431397        1.5907330897       -1.6249511023
 H         -5.2182240004       -0.2336251178        1.6037611187
 H         -5.9918391503        1.3485691221        1.4997647874
 H         -3.9367973500        2.2147450712        0.3236281272
 H         -3.7246894704        1.7489679024        2.0226238075
 O         -2.1617728104       -0.0131896778        1.7983178691
 C         -1.1602767104       -0.9641058079        1.7137116800
 O         -0.7359283307       -1.3581440172        2.8182379604
 O         -0.8288271898       -1.0866830906       -1.8953585099
 C          0.3271714797       -2.4853563089        0.4858437214
 C          1.7089670397       -1.9133598688        0.6644962012
 C          2.5833050095       -2.4644673382        1.5944610818
 C          3.8546771695       -1.9459264081        1.7594839016
 C          4.2697016797       -0.8597031387        1.0115807609
 C          3.3998370599       -0.2964315594        0.0833069203
 C          2.1295703599       -0.8281474094       -0.0920891995
 H          1.4691734701       -0.3967216599       -0.8296025999
 N          3.8006773101        0.8114852901       -0.6727111004
 S          2.7028890202        1.9119536897       -1.2662018114
 O          2.0708994904        1.4034283788       -2.4561565712
 O          3.4850285203        3.1184835795       -1.4475388122
 C          1.4845872000        2.2046290107        0.0055961481
 C          0.2172425001        2.5652428104       -0.4028035924
 C         -0.7297550400        2.8960210512        0.5521702372
 C         -0.4026592303        2.8382434622        1.8971961673
 C          0.8712636096        2.4639630524        2.2930778478
 C          1.8308273598        2.1583617616        1.3412587982
 H          2.8299835497        1.8803170218        1.6342193786
 H          1.1212046094        2.4110528131        3.3405026579
 H         -1.1442039904        3.0836145427        2.6408276070
 H         -1.7163121000        3.1981495810        0.2422890668
 H         -0.0053923297        2.5718848897       -1.4580587024
 H          4.6688400200        1.2433915302       -0.3937072106
 H          5.2575181797       -0.4452380587        1.1419457808
 H          4.5252190394       -2.3836281076        2.4828789321
 H          2.2536289894       -3.2963230977        2.1988603723
 H          0.1046202595       -3.0731893382        1.3919845118
 C          0.2391183499       -3.4414785098       -0.6956431979
 C          1.2028541101       -3.4346957207       -1.8395545878
 C          1.2379013399       -4.5515001199       -0.8425096569
 H          0.8857071399       -5.5263169301       -1.1441963963
 H          2.0650710597       -4.5736465495       -0.1492640768
 H          0.8069981003       -3.6230274814       -2.8259252877
 H          2.0016275501       -2.7093534807       -1.8313501481
 H         -0.7905946601       -3.6806260699       -0.9418088479
