  62
        -98.93920081
 C          2.3134853154        0.8913067476        0.6465519748
 C          3.4040349054        0.9245375682       -0.2574101416
 C          4.4880769617       -0.0296974634        0.0147811659
 C          4.4203847772       -0.8424056822        1.0835301213
 C          5.4551719210       -1.8526754416        1.4987586474
 C          5.3354209055       -3.2008846025        0.7749038991
 C          5.7655459337       -3.1919541302       -0.6925892394
 H          6.7614668565       -2.7557918927       -0.7751236571
 H          5.8385784984       -4.2338320780       -1.0106412311
 C          4.7994282023       -2.4561721086       -1.6317400078
 H          3.8335548227       -2.3304049906       -1.1364190864
 H          4.6239832622       -3.0636111087       -2.5224778676
 C          5.2937780475       -1.0893888852       -2.1056257351
 H          4.5159503444       -0.6423995976       -2.7297185741
 H          6.1884985101       -1.2157108374       -2.7191607833
 C          5.6139694058       -0.1063574513       -0.9721739362
 H          6.5387220835       -0.3943372550       -0.4731459040
 H          5.7432912300        0.8878378033       -1.4062892227
 H          4.3015054920       -3.5459944684        0.8499289423
 H          5.9638964501       -3.9153377536        1.3116369497
 H          5.3117795895       -2.0217746251        2.5681420664
 H          6.4525919928       -1.4410171364        1.3423979142
 O          3.3719498656       -0.8201467740        1.9499471079
 C          2.2941589467        0.0226573141        1.7419894252
 O          1.3957175650       -0.0826517093        2.6028763969
 O          3.4957450596        1.7035973598       -1.2413426063
 C          1.0874019808        1.7775134858        0.4893731675
 C          0.1885899365        1.2431833484       -0.6009893596
 C          0.4888230279        1.4070340250       -1.9495677981
 C         -0.3604147661        0.9075429107       -2.9198400221
 C         -1.5288094157        0.2547335484       -2.5695017615
 C         -1.8307192576        0.0734079055       -1.2247772816
 C         -0.9693733866        0.5617369812       -0.2524801602
 H         -1.2113002257        0.4060261234        0.7896252656
 N         -2.9943539159       -0.6110452144       -0.8375277812
 S         -3.8024916449       -0.0895569011        0.5503379733
 O         -3.8286563241        1.3554008983        0.5906089879
 O         -3.2377020490       -0.7532430722        1.6983702815
 C         -5.4388234063       -0.7244549404        0.2334307939
 C         -6.3715786451        0.0915261102       -0.3788319935
 C         -7.6326090595       -0.4165574218       -0.6483864796
 C         -7.9373055220       -1.7252099779       -0.3050739209
 C         -6.9912385591       -2.5316410222        0.3100398973
 C         -5.7284947987       -2.0297755279        0.5828939464
 H         -4.9637403140       -2.6143650611        1.0674639570
 H         -7.2325505272       -3.5474070741        0.5787088602
 H         -8.9193700239       -2.1183724115       -0.5151766993
 H         -8.3713940852        0.2088901107       -1.1228438898
 H         -6.0931725607        1.1053827045       -0.6176018231
 H         -3.6309208158       -0.7705459808       -1.6066191937
 H         -2.1972575467       -0.1219911248       -3.3289155972
 H         -0.1154665550        1.0394498376       -3.9629714780
 H          1.4028667104        1.9069340135       -2.2277265450
 H          0.5373917069        1.6920600267        1.4370581545
 C          1.4319626111        3.2375483895        0.2688048439
 C          0.3662437705        4.2670592980        0.4888314199
 C          1.5117251659        4.1556963325        1.4489659493
 H          2.2629759735        4.9311762793        1.4486003704
 H          1.3202336757        3.7333414048        2.4251795228
 H          0.3295960717        5.1207345568       -0.1703078263
 H         -0.6042741500        3.9181206180        0.8113888421
 H          2.1364193918        3.4012975587       -0.5354299800
