  62
        -98.94395463
 C          1.3875765552        1.5760919088       -0.6165122770
 C          2.6186890456        1.5477501401        0.0874670809
 C          3.5958824799        0.5377829089       -0.3344080666
 C          3.2869860601       -0.2857475580       -1.3521999561
 C          4.1564884900       -1.4050541398       -1.8456333198
 C          3.8217288450       -2.7194122714       -1.1270496931
 C          3.7664792557       -2.5953989593        0.3958097012
 H          2.9146441671       -1.9670239777        0.6689909486
 H          3.5610913109       -3.5918589068        0.7938533232
 C          5.0453985305       -2.0389555923        1.0378022755
 H          5.2882195718       -2.6457368046        1.9126757247
 H          5.8783182203       -2.1288525533        0.3394262788
 C          4.9384708314       -0.5896995147        1.5161504159
 H          4.0456424582       -0.4751395345        2.1365574226
 H          5.8057934383       -0.3748955345        2.1462167462
 C          4.8977097177        0.4753951619        0.4132545868
 H          5.0156562530        1.4526726459        0.8905932748
 H          5.7316465364        0.3248625963       -0.2753255957
 H          2.8434290960       -3.0646487563       -1.4709359268
 H          4.5664386382       -3.4670076423       -1.4074503203
 H          3.9817744329       -1.5320944399       -2.9154592395
 H          5.2013671556       -1.1459842264       -1.6851308909
 O          2.1129954224       -0.2146688364       -2.0238078481
 C          1.1178837749        0.6863834858       -1.6579093528
 O          0.0872196441        0.5893058150       -2.3482880604
 O          2.8870404941        2.3422530214        1.0298895013
 C          0.3605070390        2.5798363928       -0.1242024063
 C         -0.4394812539        2.0016194715        1.0184853232
 C         -0.7977004543        2.7825454166        2.1115357703
 C         -1.5271760633        2.2369867345        3.1532607901
 C         -1.9021186817        0.9060849375        3.1313553914
 C         -1.5322026985        0.1100076928        2.0511502057
 C         -0.8194706020        0.6676930750        0.9997911791
 H         -0.5284357005        0.0422872799        0.1724039893
 N         -1.8442487178       -1.2513397270        2.0383313902
 S         -1.9003170463       -2.2058713948        0.6728786345
 O         -2.4006101510       -3.4704447799        1.1708103091
 O         -0.6132450670       -2.2456385098        0.0271995415
 C         -3.1477518831       -1.4697075256       -0.3668162880
 C         -2.8143459682       -0.7631253748       -1.5032161930
 C         -3.8349207553       -0.2099698766       -2.2638295844
 C         -5.1560350779       -0.3632300391       -1.8770160300
 C         -5.4734238991       -1.0762025582       -0.7299518544
 C         -4.4619712633       -1.6358159330        0.0311837124
 H         -4.6656459754       -2.2162932277        0.9162348362
 H         -6.5019067760       -1.1978927908       -0.4306672003
 H         -5.9415435171        0.0729048339       -2.4737295621
 H         -3.5800432386        0.3409074360       -3.1548724100
 H         -1.7805801200       -0.6384409886       -1.7872876653
 H         -2.4520178275       -1.5762574459        2.7736275311
 H         -2.4575608256        0.4767035183        3.9507381644
 H         -1.8003923004        2.8525872069        3.9966647418
 H         -0.4814607418        3.8143217357        2.1532794809
 H          0.9523319699        3.4146568593        0.2857975368
 C         -0.5219050841        3.1447493179       -1.2276820246
 C         -1.9583101166        2.7632052003       -1.4002634750
 C         -1.6050432620        4.1326546092       -0.9084807281
 H         -1.7441794867        4.9726465793       -1.5719130996
 H         -1.7939059810        4.3528465997        0.1306088110
 H         -2.3263561008        2.6482067726       -2.4074852056
 H         -2.3834015039        2.0591538357       -0.7013276345
 H          0.0402002311        3.3189124602       -2.1393353199
