  62
        -98.92927338
 C          2.7086276499        1.0533030599        0.4473052502
 C          3.0808202597       -0.0285310902        1.2832854201
 C          4.3791656198       -0.6691945002        1.0142174503
 C          5.1368621900       -0.1993095701        0.0083995605
 C          6.4678513700       -0.7172620601       -0.4629379194
 C          6.2870314502       -1.7360626299       -1.6008284396
 C          6.0820558601       -3.1800038100       -1.1448954998
 H          5.8441181902       -3.7705432098       -2.0325938199
 H          7.0197235800       -3.5639888001       -0.7376180497
 C          4.9764226799       -3.3858225601       -0.1062942700
 H          4.1020927999       -2.7908292200       -0.3768842601
 H          4.6759867698       -4.4348382001       -0.1400941102
 C          5.4195480996       -3.0414285803        1.3234715301
 H          6.5025224896       -2.9215986104        1.3431863603
 H          5.1890745895       -3.8787135504        1.9856012899
 C          4.7514244696       -1.8011384704        1.9329123402
 H          3.8093006895       -2.0916757004        2.4084960399
 H          5.3916268494       -1.4063170805        2.7292877703
 H          7.1708134703       -1.7058840599       -2.2413564094
 H          5.4344814403       -1.4155356098       -2.2050837997
 H          7.0300347199       -1.1441523902        0.3622485207
 H          7.0143088001        0.1445336799       -0.8519047492
 O          4.7396150901        0.8354815400       -0.7795717995
 C          3.5265894401        1.4846450500       -0.5980121796
 O          3.3231374203        2.3981280601       -1.4170462795
 O          2.3530803896       -0.4399542704        2.2282700899
 C          1.3834345199        1.7245665699        0.7574720801
 C          0.2486312700        1.1234392300       -0.0321283802
 C          0.3389910902        0.9314730302       -1.4068752202
 C         -0.7302327496        0.4090747404       -2.1116229005
 C         -1.9055449798        0.0655830803       -1.4660935507
 C         -2.0077053500        0.2519340201       -0.0947068107
 C         -0.9302848401        0.7756127300        0.6103889895
 H         -1.0082350303        0.9062046398        1.6818162395
 N         -3.1905313201       -0.1062020499        0.5796382290
 S         -4.6673456800        0.5788136802        0.1424792588
 O         -4.5527607598        1.2180374704       -1.1439367910
 O         -5.1167629502        1.4088255900        1.2403264589
 C         -5.7304849701       -0.8466270598        0.0161811584
 C         -5.3609217899       -1.8739367996       -0.8296165416
 C         -6.1889044200       -2.9787609396       -0.9451186920
 C         -7.3678941201       -3.0383264697       -0.2168624522
 C         -7.7242275302       -2.0007703598        0.6303397879
 C         -6.8990711702       -0.8931564698        0.7501599282
 H         -7.1354782703       -0.0651028099        1.3985085483
 H         -8.6399809703       -2.0496095098        1.1973000877
 H         -8.0109520001       -3.8992582296       -0.3097383024
 H         -5.9121580999       -3.7887751895       -1.6007438320
 H         -4.4355530498       -1.7971520596       -1.3763259615
 H         -3.0956512803       -0.0517319801        1.5842783590
 H         -2.7450617697       -0.3182304396       -2.0214065610
 H         -0.6481178595        0.2689528505       -3.1790860305
 H          1.2496615903        1.2084400403       -1.9165886100
 H          1.1993267497        1.4940967997        1.8193093300
 C          1.4374998600        3.2414611199        0.6322758503
 C          0.7714646202        4.0107918601       -0.4642601197
 C          0.2202626599        4.0678891899        0.9269848602
 H          0.3370156699        4.9775523498        1.4962776104
 H         -0.7063647401        3.5455204899        1.1155625700
 H          1.2910807803        4.8708157201       -0.8577148895
 H          0.2160907903        3.4637412502       -1.2097859999
 H          2.3858397799        3.6372161798        0.9822069705
