  62
        -98.94825445
 C          1.1668903754        1.2071239614       -0.0134788500
 C          1.9337878939        0.6722636711        1.0483172817
 C          2.5829383786       -0.6191641726        0.7862175021
 C          2.4065662891       -1.2135217769       -0.4079848458
 C          3.0470465326       -2.5053049419       -0.8249307077
 C          4.3929695628       -2.2597667135       -1.5212982753
 C          5.3214714737       -1.3178379968       -0.7550076795
 H          6.2507461611       -1.2427889556       -1.3236727304
 H          4.8773172828       -0.3201475792       -0.7307663987
 C          5.6357051639       -1.7650824652        0.6794438695
 H          6.7066441623       -1.6469948662        0.8573071713
 H          5.4026476838       -2.8239210288        0.7979462608
 C          4.9142426240       -0.9648410768        1.7656441120
 H          5.0688587003        0.1041251337        1.5979496786
 H          5.3666991586       -1.2131363433        2.7295098492
 C          3.4063380326       -1.2183276901        1.8909056104
 H          3.2168695140       -2.2909814079        1.9746931299
 H          3.0622101757       -0.7407574614        2.8135073698
 H          4.8869430162       -3.2222549320       -1.6657154226
 H          4.2001463376       -1.8246779206       -2.5044127917
 H          3.1882644134       -3.1328324640        0.0531219009
 H          2.3765346872       -3.0168644729       -1.5175747927
 O          1.6503542973       -0.6765118936       -1.3986429334
 C          1.0012638581        0.5400871861       -1.2263299494
 O          0.3266692903        0.9042222068       -2.2061452855
 O          2.0688247157        1.2481608920        2.1625609494
 C          0.4604394425        2.5351537155        0.1836809084
 C         -1.0332374496        2.3539813761        0.0655365264
 C         -1.8416574401        3.1670593093       -0.7180654292
 C         -3.2085197207        2.9554580241       -0.7686483074
 C         -3.7949111126        1.9357325755       -0.0429657361
 C         -2.9965276447        1.1219564868        0.7536546045
 C         -1.6286381405        1.3366002639        0.8028930751
 H         -1.0185801721        0.7015753308        1.4293967945
 N         -3.5703301607        0.0972148264        1.5281952799
 S         -2.8930854616       -1.4296949139        1.5267448408
 O         -3.9196344371       -2.2739590032        2.0995837844
 O         -1.6249009995       -1.4205177758        2.2100775971
 C         -2.6757321672       -1.8299011617       -0.1951714453
 C         -1.4128457918       -1.7964685317       -0.7462535279
 C         -1.2630135870       -2.0522311768       -2.0997137478
 C         -2.3775087540       -2.3335792576       -2.8737598471
 C         -3.6415235142       -2.3716851985       -2.3038653529
 C         -3.7960260558       -2.1143688421       -0.9519894752
 H         -4.7593606177       -2.1458942544       -0.4692720307
 H         -4.5041143644       -2.5962173456       -2.9103705174
 H         -2.2568731595       -2.5246666206       -3.9283749322
 H         -0.2800760981       -2.0056729549       -2.5407382192
 H         -0.5717271535       -1.5695160617       -0.1093019615
 H         -4.5752695870        0.0346042781        1.4460451651
 H         -4.8609277813        1.7718596318       -0.0828866439
 H         -3.8245500709        3.5917414831       -1.3854119494
 H         -1.4020328275        3.9659362449       -1.2916709741
 H          0.6815913812        2.8308435164        1.2206276001
 C          1.0265175193        3.5824184523       -0.7523911864
 C          0.9992411657        5.0311570081       -0.3697112269
 C          2.2962405277        4.2809630638       -0.3716659904
 H          3.0185453419        4.4967934413       -1.1446545811
 H          2.7397267637        4.0201594633        0.5785171256
 H          0.8336513963        5.7662372303       -1.1427380581
 H          0.5648966523        5.2878317937        0.5846702305
 H          0.8931041610        3.3236430451       -1.7966334944
