  62
        -98.94350568
 C         -1.5141724008       -1.4598675798        0.0378388300
 C         -2.0156699506       -0.5328248693        0.9833274296
 C         -3.0833690700        0.3563495911        0.5072164490
 C         -3.5299396197        0.2302169710       -0.7557756811
 C         -4.5674906190        1.1119027414       -1.3875942117
 C         -3.9179970781        2.3089325208       -2.0966663019
 C         -2.8872115680        3.0481079905       -1.2427364718
 H         -2.0391411184        2.3845611901       -1.0558286813
 H         -2.5135264274        3.8853986402       -1.8365011519
 C         -3.4262890881        3.5700901812        0.0967304079
 H         -3.0735058576        4.5936923711        0.2396645177
 H         -4.5159106581        3.6046845818        0.0678459676
 C         -2.9756279589        2.7666164813        1.3181723483
 H         -1.8897671790        2.6438105807        1.2938606287
 H         -3.2233347489        3.3428070717        2.2133600381
 C         -3.6106624797        1.3790283817        1.4736461685
 H         -4.6968738196        1.4589120123        1.4008322782
 H         -3.3580213402        1.0072815219        2.4707187287
 H         -3.4185845080        1.9477621103       -2.9990331416
 H         -4.7055096577        3.0013346312       -2.3994957623
 H         -5.1205486391        0.5232062015       -2.1213792417
 H         -5.2575169990        1.4602257420       -0.6216042220
 O         -3.0405463399       -0.6884102395       -1.6279745707
 C         -2.0026296405       -1.5381249600       -1.2660543501
 O         -1.6163327606       -2.2936252204       -2.1775764398
 O         -1.5834689809       -0.4476267692        2.1625900997
 C         -0.3740085414       -2.3665912803        0.4534363606
 C          0.8824936490       -2.0692247712       -0.3287657991
 C          1.8475152185       -3.0362787218       -0.5867023985
 C          3.0224153289       -2.7077187227       -1.2414499183
 C          3.2670184097       -1.4089842529       -1.6511140486
 C          2.3073944302       -0.4385467023       -1.4053569992
 C          1.1335606498       -0.7688452015       -0.7461216794
 H          0.3984195702        0.0022611190       -0.5483504499
 N          2.5736199310        0.9049745074       -1.7773014895
 S          3.5326766411        1.7057333872       -0.6549677894
 O          3.5377440920        3.0957352271       -1.0503388698
 O          4.8114629907        1.0461114966       -0.6019037588
 C          2.6628580405        1.5014541382        0.8878344604
 C          2.8489734597        0.3389805983        1.6093140108
 C          2.0758164692        0.1226052890        2.7385923206
 C          1.1347884496        1.0638345296        3.1251801200
 C          0.9675718705        2.2302203295        2.3949289697
 C          1.7292672509        2.4487790688        1.2584992798
 H          1.6231828016        3.3384604686        0.6573619195
 H          0.2368329008        2.9613600700        2.7028674792
 H          0.5183926893        0.8819266302        3.9906644899
 H          2.2001872886       -0.7853270309        3.3065472609
 H          3.5898078294       -0.3705486222        1.2773538112
 H          1.7308351914        1.4460861578       -1.9148823899
 H          4.1848087500       -1.1285443536       -2.1411728984
 H          3.7596156486       -3.4726578531       -1.4315616378
 H          1.6792165179       -4.0523454517       -0.2687835083
 H         -0.1725390616       -2.1075841201        1.5050412806
 C         -0.7871249522       -3.8229273401        0.3842561609
 C         -0.2756804430       -4.8085481001        1.3911521113
 C         -1.7045377028       -4.3611788593        1.4401544908
 H         -2.4771977631       -5.0559043090        1.1471489607
 H         -2.0024805627       -3.6847572089        2.2280121505
 H         -0.0675087535       -5.8166764803        1.0654728717
 H          0.3919745869       -4.4439761102        2.1571116614
 H         -0.9433657721       -4.1625969703       -0.6332523591
