  62
        -98.94492813
 C         -1.9637911967       -0.8499219895        0.0712937768
 C         -2.2512916627        0.1185204791        1.0602975317
 C         -2.3349940625        1.5081466837        0.5949749977
 C         -2.1035445829        1.7809702300       -0.7023697355
 C         -2.1833855875        3.1482156240       -1.3170547498
 C         -3.5919677220        3.4402568955       -1.8532085882
 C         -4.7073739885        3.1366038255       -0.8530301444
 H         -5.6527041442        3.4062288808       -1.3284986510
 H         -4.7344004238        2.0604823564       -0.6676602493
 C         -4.5782260167        3.8771845683        0.4852721754
 H         -5.5555371605        4.2802004253        0.7587214904
 H         -3.8969343297        4.7217208640        0.3770079694
 C         -4.1159205825        3.0019136048        1.6516430122
 H         -4.2667301093        3.5616661028        2.5784077328
 H         -4.7375467579        2.1047530892        1.7056533588
 C         -2.6455002191        2.5653908981        1.6171855318
 H         -2.0025580082        3.4369797476        1.4750639557
 H         -2.4049528174        2.1204870155        2.5875328326
 H         -3.7549607252        2.8303683828       -2.7446510549
 H         -3.6380968659        4.4907418053       -2.1458266138
 H         -1.9038745342        3.8900157603       -0.5711077703
 H         -1.4693198388        3.1914014791       -2.1413929440
 O         -1.8162670960        0.8257117508       -1.6226487578
 C         -1.7250136154       -0.5081707687       -1.2600584827
 O         -1.4464550520       -1.2795207327       -2.1986854969
 H          0.4475911485       -0.9438018818        0.8865594897
 C          0.6476803792       -1.8996495576        0.4230362577
 C         -0.4052392448       -2.7624138711        0.1452832417
 C         -0.1192664285       -3.9925037071       -0.4321832040
 C          1.1849941216       -4.3259880702       -0.7556572396
 C          2.2225572615       -3.4423211563       -0.5248768072
 C          1.9485689755       -2.2170390787        0.0736678165
 N          2.9778535550       -1.2979353656        0.3477082220
 S          2.6161073462        0.3493827161        0.2465410014
 O          2.0147305648        0.7682842306        1.4890109482
 O          1.8709927926        0.6347322687       -0.9591198954
 C          4.2639772105        1.0229161293        0.1322226859
 C          4.7694071149        1.3813193431       -1.1029615392
 C          6.0630623517        1.8735032759       -1.1809286824
 C          6.8259297645        1.9947313306       -0.0292669634
 C          6.3046033294        1.6314186906        1.2037760000
 C          5.0117045907        1.1400719529        1.2889058395
 H          4.5590005984        0.8541568638        2.2239213096
 H          6.8993755514        1.7298578592        2.0974025999
 H          7.8322297410        2.3774065120       -0.0928756440
 H          6.4691093718        2.1596310883       -2.1377197487
 H          4.1353360193        1.2758360110       -1.9688868164
 H          3.8350674450       -1.5164386125       -0.1424816755
 H          3.2344873009       -3.6939619399       -0.8035974785
 H          1.3931308932       -5.2816269092       -1.2125109625
 H         -0.9186263975       -4.6837530876       -0.6434994395
 C         -1.8023639722       -2.3018242507        0.4834302407
 H         -1.9149310823       -2.3109882593        1.5784928381
 C         -2.8890200614       -3.1609756602       -0.1281738883
 C         -3.3728384739       -4.3895526960        0.5811927828
 C         -4.2449384493       -3.1734424994        0.5096424421
 H         -5.1149638998       -3.1959560566       -0.1291885163
 H         -4.3748151873       -2.5812360013        1.4038792485
 H         -3.6485619900       -5.2504136041       -0.0089507855
 H         -2.9177349065       -4.6297773477        1.5301045446
 H         -2.8439344066       -3.1745037990       -1.2115008894
 O         -2.4264170771       -0.1674595690        2.2774492008
