  62
        -98.93910345
 C          1.8969925207        0.7245510928        0.7195878166
 C          2.1635467392        0.2322963004       -0.5815910136
 C          2.7318291441       -1.1214739910       -0.6453290397
 C          2.8803189481       -1.8429687354        0.4791859104
 C          3.4241597504       -3.2430430053        0.5704288161
 C          4.9570631402       -3.3144472213        0.6138347039
 C          5.6612158292       -3.0036615993       -0.7076685748
 H          6.7053836193       -3.3002603574       -0.5907356509
 H          5.2335023040       -3.6202777214       -1.4986546200
 C          5.6113124780       -1.5259917335       -1.1206201992
 H          5.3434006953       -0.9148952835       -0.2555224794
 H          6.6037285000       -1.2042367630       -1.4438843919
 C          4.6413442086       -1.2194558509       -2.2618206147
 H          4.9740721660       -1.7245216611       -3.1711369521
 H          4.6608044073       -0.1426881916       -2.4481503352
 C          3.1882647073       -1.6255879268       -1.9812572889
 H          2.5491164984       -1.1707591306       -2.7419964331
 H          3.0816883562       -2.7087233848       -2.0362856328
 H          5.3157962767       -2.6320412259        1.3879791162
 H          5.2265964851       -4.3293245565        0.9150737089
 H          3.0313622416       -3.6681239540        1.4967224549
 H          3.0529967945       -3.8347529430       -0.2668516165
 O          2.5218124941       -1.3687583362        1.7034107792
 C          2.0397584429       -0.0786530167        1.8528064747
 O          1.7712925427        0.2311507033        3.0325932515
 H         -0.7766821808        0.5586846781        0.6002147746
 C         -0.8380938323        1.4321036096       -0.0353119092
 C          0.1907282563        2.3664780695       -0.0128956060
 C          0.0981143097        3.4770574826       -0.8405426923
 C         -1.0004875962        3.6414859720       -1.6666736946
 C         -2.0261061329        2.7156254382       -1.6784919086
 C         -1.9367021768        1.5925028927       -0.8616349393
 N         -2.9406508074        0.6100809845       -0.8847923835
 S         -3.2068916113       -0.3304851376        0.4862084974
 O         -3.2566003781        0.5056957137        1.6654491822
 O         -2.2513268828       -1.4112677778        0.5039119961
 C         -4.8336047590       -0.9658666234        0.1247113914
 C         -5.9391299562       -0.3159482764        0.6407219842
 C         -7.2030995253       -0.7937340494        0.3323021225
 C         -7.3397824340       -1.9059209539       -0.4847546248
 C         -6.2211251022       -2.5486318105       -0.9941168527
 C         -4.9542849509       -2.0766140578       -0.6887755731
 H         -4.0559380602       -2.5476256731       -1.0528295310
 H         -6.3307813365       -3.4149836216       -1.6262515806
 H         -8.3241759461       -2.2762422062       -0.7235347568
 H         -8.0740091707       -0.2981674517        0.7299387078
 H         -5.7825146880        0.5384195379        1.2794005876
 H         -3.8013724005        0.9264550324       -1.3092799104
 H         -2.8818270852        2.8479996785       -2.3227332371
 H         -1.0593365897        4.5072457992       -2.3088460107
 H          0.8928153276        4.2045149275       -0.8544318768
 C          1.3333486666        2.1166487963        0.9418101820
 H          0.9051819365        2.0883486190        1.9590167611
 C          2.3806868820        3.2208879600        0.9422180547
 C          3.8130884030        2.9266779769        1.2724541744
 C          3.4320971113        3.3252293740       -0.1199016096
 H          3.7157012035        4.3089770153       -0.4644363828
 H          3.4334027988        2.5726801304       -0.8918396446
 H          4.3527966726        3.6337195973        1.8845616259
 H          4.0812948234        1.8961985265        1.4572435755
 H          1.9842036489        4.1539361457        1.3309864768
 O          1.9503745975        0.8772476475       -1.6403007393
