  62
        -98.93862655
 C         -2.8283414943       -0.1238800032       -0.1573746690
 C         -2.1632606776        0.6614610165       -1.1306878484
 C         -2.0110410185        2.0893568828       -0.8111403967
 C         -2.5095704109        2.5719778579        0.3397730039
 C         -2.4044997880        3.9983980148        0.7941546986
 C         -1.1698597334        4.2264827906        1.6761518598
 C          0.1323102479        3.6805640907        1.0892180726
 H          0.9367505048        3.9645342908        1.7722276446
 H          0.1029176655        2.5878377751        1.0807886392
 C          0.4619735454        4.1859029185       -0.3221585880
 H         -0.0972187846        5.0988142182       -0.5323164179
 H          1.5238392739        4.4385272969       -0.3581057370
 C          0.2077879709        3.1616439053       -1.4302226280
 H          0.7271466415        3.4954268255       -2.3328363830
 H          0.6356142548        2.2008658818       -1.1303608565
 C         -1.2639735919        2.9364431983       -1.8020772557
 H         -1.7612189083        3.8976798367       -1.9470958213
 H         -1.2922411377        2.3874111251       -2.7478690356
 H         -1.0685977148        5.2998336444        1.8500451495
 H         -1.3371717083        3.7402665069        2.6402201914
 H         -2.3643385265        4.6474018921       -0.0786609298
 H         -3.2989364572        4.2379197160        1.3724087636
 O         -3.1604519481        1.7937372266        1.2426215879
 C         -3.3012881736        0.4337107515        1.0339475630
 O         -3.8784941470       -0.1680191063        1.9627415259
 O         -1.7130429267        0.2154958978       -2.2192732055
 C         -3.0078052354       -1.6314664234       -0.2821813892
 C         -1.7632088177       -2.2966652390        0.2472963722
 C         -1.8002486677       -3.1911028977        1.3093662997
 C         -0.6279444095       -3.7006792106        1.8437662037
 C          0.6033984970       -3.3159202166        1.3425918070
 C          0.6457709060       -2.4323455801        0.2737480365
 C         -0.5263167956       -1.9441968090       -0.2760038341
 H         -0.4807072476       -1.2504245303       -1.1026047834
 N          1.9042897878       -1.9627628751       -0.2015558353
 S          2.3955655315       -0.6647977926        0.7790019495
 O          2.6286025378       -1.1828611320        2.1036193838
 O          1.4487236847        0.4242291070        0.6764851480
 C          3.9446944488       -0.2142509299        0.0210755435
 C          5.0449954427       -1.0187622087        0.2476214795
 C          6.2446674256       -0.6999455234       -0.3677716113
 C          6.3228376152        0.4104792820       -1.1955642766
 C          5.2099228363        1.2086201264       -1.4119537588
 C          4.0061738100        0.8943695116       -0.8003341310
 H          3.1171264111        1.4900488934       -0.9360534228
 H          5.2729199588        2.0727231196       -2.0536338190
 H          7.2575403573        0.6569277227       -1.6739986299
 H          7.1128923326       -1.3167736424       -0.2009249151
 H          4.9370632677       -1.8661713141        0.9038220805
 H          1.8006259283       -1.5913671779       -1.1397397431
 H          1.5242181978       -3.6669517518        1.7784071886
 H         -0.6741923443       -4.3887174610        2.6743194218
 H         -2.7544967665       -3.4630158589        1.7370667868
 H         -3.8370051374       -1.8821477641        0.3973883086
 C         -3.4038252874       -2.0800729965       -1.6820395872
 C         -2.5623101865       -2.9839395974       -2.5284652034
 C         -3.8230803864       -3.5025979720       -1.9099887563
 H         -4.6742716921       -3.6969391332       -2.5445039744
 H         -3.7259334864       -4.1843195498       -1.0782405336
 H         -2.5420683691       -2.7955092878       -3.5910361863
 H         -1.6218138652       -3.3311461576       -2.1300332428
 H         -3.9666925865       -1.3178979784       -2.2098921651
