  62
        -98.94131425
 C         -2.1739530792       -0.7985199799       -0.3103720607
 C         -3.1044456092       -0.5752759606        0.7397673295
 C         -3.6904494692        0.7656382293        0.8210538003
 C         -3.3050874593        1.7125516299       -0.0530011891
 C         -3.7783149093        3.1404209399       -0.0820273782
 C         -5.1045407794        3.3452163303       -0.8270251981
 C         -6.3454033793        2.8290442098       -0.0976026184
 H         -6.3628482493        3.2318464992        0.9155035619
 H         -7.2149156693        3.2290925001       -0.6227656781
 C         -6.4594079293        1.2990428997       -0.0478136993
 H         -5.7938601492        0.8599464002       -0.7945390596
 H         -7.4767323892        1.0010273099       -0.3109048595
 C         -6.1460184492        0.6834841189        1.3159797603
 H         -6.2232247692       -0.4030584010        1.2273458596
 H         -6.8864918192        1.0153370484        2.0469991305
 C         -4.7477735492        1.0158316387        1.8537014605
 H         -4.7101795793        2.0514214784        2.1915227611
 H         -4.5416378092        0.3623237181        2.7048748401
 H         -5.2238855594        4.4189778204       -0.9887343274
 H         -5.0316835493        2.8673949409       -1.8066816584
 H         -3.8697897394        3.5152036493        0.9379694420
 H         -3.0018168194        3.7135733403       -0.5935440879
 O         -2.3939699893        1.4703041706       -1.0298091793
 C         -1.8172990892        0.2190305007       -1.1953258800
 O         -1.0221046992        0.1711800313       -2.1568458001
 O         -3.4315348591       -1.4636052611        1.5710607089
 C         -1.5721270191       -2.1924092598       -0.3962321915
 C         -0.2025762991       -2.2165083801        0.2402979285
 C          0.0414766710       -2.9615294008        1.3878878180
 C          1.2905262810       -2.9502985811        1.9846588980
 C          2.3195109009       -2.1925982408        1.4544290585
 C          2.0813682009       -1.4376723301        0.3141446989
 C          0.8344360609       -1.4629539197       -0.2913326311
 H          0.6565355508       -0.8632326692       -1.1720174007
 N          3.1209263708       -0.6403057997       -0.2265442406
 S          3.5337276308        0.7245772798        0.6840661803
 O          3.6354705508        0.3453080289        2.0700639000
 O          2.6298536307        1.8163481399        0.3820115909
 C          5.1532789108        1.0785723003        0.0311969905
 C          6.2118967908        0.2933969901        0.4451486900
 C          7.4708283008        0.5356375804       -0.0799939899
 C          7.6485479307        1.5517903610       -1.0073366393
 C          6.5760817807        2.3309858712       -1.4133745288
 C          5.3138202707        2.0928912808       -0.8919544789
 H          4.4522634507        2.6769756410       -1.1738735085
 H          6.7166906806        3.1212389517       -2.1332726183
 H          8.6292852807        1.7390232113       -1.4152465491
 H          8.3076737708       -0.0671533697        0.2338505297
 H          6.0274273108       -0.4798667304        1.1720771495
 H          2.8684659008       -0.3088306891       -1.1499871204
 H          3.2885891909       -2.1578860610        1.9233599085
 H          1.4634680410       -3.5347041817        2.8756313776
 H         -0.7628165790       -3.5368029211        1.8231653276
 H         -2.2324304991       -2.8257073302        0.2115495581
 C         -1.5335121191       -2.7524499289       -1.8043386619
 C         -1.4530081990       -4.2366256488       -1.9927978728
 C         -2.7185127490       -3.5061526587       -2.3256272623
 H         -2.9894989590       -3.3836513780       -3.3634994123
 H         -3.5651058390       -3.6243581491       -1.6650142624
 H         -0.8520553490       -4.6200726883       -2.8028134230
 H         -1.4422397290       -4.8525057794       -1.1064160032
 H         -0.9984664691       -2.1243570285       -2.5043918515
