  62
        -98.93976577
 C         -1.0189794820       -1.5452055399        0.1149434967
 C         -1.5800234097       -0.5909604600        0.9920140894
 C         -2.7994902839        0.0986355750        0.5337305524
 C         -3.2912227243       -0.1905784183       -0.6843929332
 C         -4.4952332850        0.3930895005       -1.3799331953
 C         -5.7657984759        0.5718210884       -0.5347693678
 C         -6.0953093780        2.0351134651       -0.2348047681
 H         -5.8829179721        2.6284382656       -1.1266824535
 H         -7.1658847558        2.1186782386       -0.0347223737
 C         -5.3548062568        2.6364514395        0.9584289092
 H         -5.5689108230        3.7076696297        0.9745618642
 H         -5.7530286452        2.2111236797        1.8822414370
 C         -3.8370645365        2.4416121966        0.9550219358
 H         -3.4304073818        2.5873813406       -0.0457981056
 H         -3.3990203923        3.2176079297        1.5869842834
 C         -3.3907973372        1.0800429573        1.5086764454
 H         -4.2224309590        0.6003322199        2.0332523098
 H         -2.6071969639        1.2303756227        2.2580033727
 H         -6.5999326322        0.1477233141       -1.0960717835
 H         -5.6782482042        0.0051332667        0.3907666229
 H         -4.2038325650        1.3499139205       -1.8214645519
 H         -4.6958289508       -0.2842234834       -2.2134219330
 O         -2.6958221855       -1.0949778133       -1.5141003319
 C         -1.5501410957       -1.7824962069       -1.1512845963
 O         -1.1175216474       -2.5596361388       -2.0234858690
 O         -1.0768393287       -0.3175411161        2.1165899465
 C          0.2427410539       -2.2770951534        0.5286207263
 C          1.3918782781       -1.9216088767       -0.3838194463
 C          2.3790853592       -2.8267219721       -0.7543684970
 C          3.4248053355       -2.4262554845       -1.5681785703
 C          3.5264922124       -1.1184361495       -2.0068809027
 C          2.5469414030       -0.2041414322       -1.6368458324
 C          1.4919578693       -0.6142752636       -0.8384253607
 H          0.7217506167        0.0978855410       -0.5865773584
 N          2.6050899595        1.1351351652       -2.0498300832
 S          2.0734911557        2.3372934315       -1.0160609121
 O          0.6326319897        2.3755855894       -0.9831606616
 O          2.7222799865        3.5357135035       -1.5055489910
 C          2.7473270541        1.8968642832        0.5761310488
 C          4.1185955904        1.9868349532        0.7250114075
 C          4.6922967857        1.6053770168        1.9260019830
 C          3.8891192459        1.1348941812        2.9543783136
 C          2.5152962387        1.0567987605        2.7920689141
 C          1.9345887203        1.4412738828        1.5931525033
 H          0.8673408937        1.3806824352        1.4472919408
 H          1.8809251021        0.6906994667        3.5837481678
 H          4.3346472971        0.8299480373        3.8881228423
 H          5.7604303077        1.6712705759        2.0559479638
 H          4.7073719328        2.3674738321       -0.0936886617
 H          3.4481938169        1.3979679098       -2.5381001738
 H          4.3460196633       -0.8079029947       -2.6363940943
 H          4.1784564521       -3.1422976371       -1.8583808887
 H          2.3249374949       -3.8474545311       -0.4131885918
 H          0.4855362941       -1.8940181728        1.5320755500
 C         -0.0094834162       -3.7676738452        0.6254709734
 C          0.7180528651       -4.5962665306        1.6407803234
 C         -0.7391989747       -4.2995057038        1.8216526162
 H         -1.4536396040       -5.0960608820        1.6778666242
 H         -1.0274473406       -3.5877971410        2.5816105065
 H          1.0040634857       -5.6027480565        1.3748069650
 H          1.4193849342       -4.0924329965        2.2884581931
 H         -0.2350005859       -4.2129005053       -0.3369554313
