  62
        -98.93993884
 C         -2.1624023507       -1.3973635204        0.5631428083
 C         -2.0432989711       -0.1877535304        1.2957764183
 C         -3.0315801212        0.8525227295        0.9997200580
 C         -3.9941867309        0.6134697793        0.0910871478
 C         -5.0785179409        1.5710521091       -0.3220622226
 C         -4.6420990908        2.5675401791       -1.4051859125
 C         -3.6878960911        3.6658561093       -0.9337672522
 H         -3.6412632010        4.4108794093       -1.7305416422
 H         -4.1070630214        4.1560486293       -0.0545103524
 C         -2.2634289211        3.1814687695       -0.6272579918
 H         -2.1036538108        2.2021064895       -1.0842269018
 H         -1.5427446810        3.8647370396       -1.0810522316
 C         -1.9296451315        3.0911994096        0.8619800783
 H         -1.9478930817        4.0897535296        1.3040227482
 H         -0.9173551614        2.6913217898        0.9604115186
 C         -2.8721243215        2.1856135595        1.6651922680
 H         -2.4293106018        2.0155464796        2.6495329782
 H         -3.8414783017        2.6661526493        1.7953738378
 H         -4.1810947204        2.0111989792       -2.2246735923
 H         -5.5457952307        3.0428635190       -1.7937656227
 H         -5.8954876007        0.9653469490       -0.7201347228
 H         -5.4420355812        2.1142636591        0.5505696373
 O         -4.0953647205       -0.5690984708       -0.5683742922
 C         -3.1631420904       -1.5875603706       -0.3901670019
 O         -3.3591342400       -2.5735023507       -1.1232906620
 O         -1.1467825513        0.0073417398        2.1597718086
 C         -1.0865063606       -2.4367599202        0.8253925487
 C          0.1164905596       -2.0899958301       -0.0145218810
 C          0.0092649699       -1.9615133701       -1.3964714211
 C          1.1085777801       -1.5987686200       -2.1522567008
 C          2.3280850899       -1.3419952098       -1.5487660704
 C          2.4393700295       -1.4451871397       -0.1688048504
 C          1.3366965994       -1.8259158299        0.5873745793
 H          1.4243304091       -1.8965653198        1.6627012393
 N          3.6671375493       -1.1793641695        0.4591919199
 S          4.5588465192        0.1649595306        0.0168214301
 O          5.1129858896       -0.0396146593       -1.2977317197
 O          5.5099532689        0.3443000108        1.0894749204
 C          3.4063280390        1.5252008804       -0.0116498202
 C          2.9011589393        1.9767089603       -1.2138360404
 C          1.9935230191        3.0239291702       -1.2070420706
 C          1.6107217487        3.5993372301       -0.0057124208
 C          2.1249836184        3.1322433303        1.1943558694
 C          3.0286456786        2.0828744304        1.1940015397
 H          3.4590617384        1.7020314405        2.1062212098
 H          1.8218817681        3.5794765002        2.1274609893
 H          0.9096176186        4.4190047400       -0.0023869110
 H          1.5896038493        3.3879824001       -2.1380480308
 H          3.2337121996        1.5144082803       -2.1284491303
 H          3.6374231290       -1.2686155995        1.4643004999
 H          3.1935444100       -1.0637136297       -2.1273817002
 H          1.0162791904       -1.5117498200       -3.2244167508
 H         -0.9463100199       -2.1458883603       -1.8655729413
 H         -0.8038650709       -2.2892643802        1.8800113987
 C         -1.5488966403       -3.8772176603        0.6792063886
 C         -1.0493129999       -4.8077047103       -0.3811284813
 C         -0.6124824203       -4.9932678502        1.0390103289
 H         -0.9955529803       -5.8340058102        1.5971784788
 H          0.4048014596       -4.7259234900        1.2843487891
 H         -1.7564434297       -5.5042570704       -0.8049166414
 H         -0.3251178398       -4.4395113602       -1.0904901511
 H         -2.5860338504       -4.0023986105        0.9707874683
