  62
        -98.94282858
 C          2.4724827901        0.9674775200        0.4498607200
 C          2.4411692403       -0.2561352700       -0.2615703900
 C          3.5398189805       -1.1863927497        0.0278045199
 C          4.4811817706       -0.8527135695        0.9292063499
 C          5.6475948208       -1.7060669793        1.3484281798
 C          6.8582788007       -1.6173819290        0.4091532796
 C          6.6888137507       -2.3171527591       -0.9399874903
 H          7.6771343107       -2.3661094489       -1.4014316704
 H          6.3549558209       -3.3422972291       -0.7768136703
 C          5.7284692205       -1.6080937693       -1.9050816503
 H          5.5703439303       -0.5798594193       -1.5716295202
 H          6.1820181904       -1.5561524392       -2.8974855103
 C          4.3698953706       -2.2909098196       -2.0625141301
 H          4.5040555408       -3.2728552896       -2.5216951601
 H          3.7575383604       -1.6852683997       -2.7353264901
 C          3.5970855007       -2.4670644997       -0.7490132600
 H          2.5703790808       -2.7531825800       -0.9901068099
 H          4.0493169610       -3.2566553596       -0.1493705101
 H          7.0974508104       -0.5640200590        0.2458401396
 H          7.7052875708       -2.0736877688        0.9266904996
 H          5.9518682608       -1.3523200592        2.3358750397
 H          5.3283424910       -2.7450784693        1.4350993198
 O          4.4665796804        0.3298880805        1.6012019798
 C          3.4728024701        1.2681756903        1.3737566099
 O          3.5838638700        2.3104590203        2.0513818399
 H         -0.8954317202        1.8012707293       -1.3345950897
 C         -1.0125126500        1.3596790393       -0.3575211397
 C          0.0391262100        1.3812824095        0.5427855702
 C         -0.1492129697        0.8092288695        1.7989127203
 C         -1.3508227496        0.2163261992        2.1318076504
 C         -2.3915647596        0.1733409290        1.2194138305
 C         -2.2195747499        0.7503237990       -0.0304337995
 N         -3.2496380100        0.6906750588       -0.9761170294
 S         -4.8558955199        0.7827527085       -0.5326724393
 O         -5.5542774801        1.1426537683       -1.7472517392
 O         -5.0507897300        1.6603320584        0.5982059007
 C         -5.2808896595       -0.8890765216       -0.0898938992
 C         -6.0016932394       -1.1296501618        1.0633324008
 C         -6.3396088491       -2.4354080918        1.3833677409
 C         -5.9537707289       -3.4722789318        0.5480025409
 C         -5.2319593591       -3.2138236916       -0.6077061492
 C         -4.8924859894       -1.9106486116       -0.9341334993
 H         -4.3304730395       -1.6724978614       -1.8218321093
 H         -4.9311563090       -4.0227072016       -1.2540314992
 H         -6.2158781587       -4.4879137318        0.7992914709
 H         -6.9003580089       -2.6384579920        2.2816046509
 H         -6.2737597795       -0.2935698718        1.6879038108
 H         -3.0571317101        1.1566227888       -1.8494089395
 H         -3.3291751995       -0.2932141812        1.4730646006
 H         -1.4797828494       -0.2243780108        3.1088969904
 H          0.6668950503        0.8331676697        2.5088512202
 C          1.3801211899        1.9987789498        0.2276069001
 H          1.5651359698        2.8017608199        0.9556625401
 C          1.4820455696        2.5752128298       -1.1688662699
 C          0.9457202093        3.9441399597       -1.4588415399
 C          2.4256858594        3.7120702900       -1.4154621100
 H          2.9788713493        3.7318094901       -2.3425396801
 H          2.9805807994        4.0887784101       -0.5684503201
 H          0.4934588193        4.4867538896       -0.6423022198
 H          0.4851520492        4.1280746696       -2.4180529798
 H          1.4022838397        1.8180792498       -1.9406280099
 O          1.5456457803       -0.5600679202       -1.0912271699
