  62
        -98.93772075
 C         -1.4980805365       -1.8942871210        0.0744881040
 C         -1.6681796681       -0.9593573838       -0.9745556747
 C         -2.7299080600        0.0428756417       -0.7838447461
 C         -3.4566122518        0.0323955004        0.3475445531
 C         -4.4935803441        1.0499888329        0.7283626386
 C         -3.8010996564        2.3381240794        1.2180334911
 C         -4.0380680568        3.5578690329        0.3276645290
 H         -5.0512994012        3.9287043599        0.4961494483
 H         -3.3457655767        4.3390451974        0.6481196149
 C         -3.8683298283        3.3287850891       -1.1773491976
 H         -4.7669487541        2.8592701192       -1.5804802062
 H         -3.7986335762        4.3140114171       -1.6431767164
 C         -2.6492545541        2.4977537774       -1.5978918311
 H         -1.8651919768        2.5502662316       -0.8428114918
 H         -2.2417867558        2.9333337104       -2.5124990481
 C         -2.9557814253        1.0200499750       -1.9046563601
 H         -3.9824688240        0.9254631023       -2.2690052643
 H         -2.2909801197        0.6863650193       -2.7065816334
 H         -4.1476174470        2.5765588856        2.2247267017
 H         -2.7299411736        2.1393361294        1.2898445257
 H         -5.1360980008        1.2590016341       -0.1240027514
 H         -5.0994532979        0.6162053145        1.5240710640
 O         -3.2645258121       -0.8793612863        1.3347755407
 C         -2.2953538435       -1.8585382691        1.2238551323
 O         -2.2399745134       -2.6337123667        2.1990295378
 H          1.0735902502       -1.2706268366       -1.3769009245
 C          1.5535370605       -1.5561307673       -0.4528831945
 C          0.9089853826       -2.4406300057        0.4007834990
 C          1.5266911027       -2.7760105238        1.5997882940
 C          2.7616913085       -2.2442238542        1.9294466022
 C          3.4033938787       -1.3661038513        1.0742103418
 C          2.7861365559       -1.0132180553       -0.1198626412
 N          3.4180629334       -0.1141827049       -1.0027333513
 S          3.8507633428        1.4017970437       -0.4502628444
 O          4.2848080542        2.1274606351       -1.6212285291
 O          4.8191837712        1.2567827124        0.6071265044
 C          2.3633916693        2.1450503624        0.1990470750
 C          1.9004297328        1.7537711593        1.4399035114
 C          0.7412573557        2.3311188760        1.9335386369
 C          0.0755139287        3.2921767009        1.1885300804
 C          0.5510777164        3.6718303816       -0.0573796285
 C          1.7014031398        3.0875506734       -0.5620932146
 H          2.1083556281        3.3561226677       -1.5235951437
 H          0.0310206671        4.4196829491       -0.6344124732
 H         -0.8169800532        3.7511055447        1.5853117283
 H          0.3644880097        2.0308957326        2.8986156441
 H          2.4504748995        1.0173172207        2.0025615417
 H          2.9290344258       -0.0230128991       -1.8824480909
 H          4.3603443222       -0.9356309774        1.3216724675
 H          3.2315501405       -2.5172871943        2.8623347578
 H          1.0251828109       -3.4483294792        2.2808513775
 C         -0.4497510451       -2.9979085909        0.0494905598
 H         -0.7398186963       -3.6964079218        0.8453401595
 C         -0.4169636169       -3.7581143059       -1.2620736290
 C          0.1911247307       -5.1267231552       -1.2904128144
 C         -1.2918764615       -4.9617573838       -1.4314688651
 H         -1.7434466612       -5.1387698780       -2.3961121700
 H         -1.9186149754       -5.2459696766       -0.5984305998
 H          0.7613406069       -5.4193927184       -2.1586719969
 H          0.5700232344       -5.5251663783       -0.3613162251
 H         -0.2742846770       -3.1253882390       -2.1276704520
 O         -0.9804547349       -0.9388542831       -2.0315213051
