  62
        -98.94571106
 C         -0.9812680470       -1.2129495120       -0.3583964281
 C         -1.9241140320       -1.2900992504        0.6985608782
 C         -2.7115247925       -0.0823806238        0.9629219072
 C         -2.4802848468        1.0303242139        0.2439638332
 C         -3.1659442192        2.3585850305        0.4188906866
 C         -4.5134946358        2.4673270025       -0.3078262979
 C         -5.6563342633        1.6691708100        0.3205633807
 H         -5.7267769386        1.9120314092        1.3813327529
 H         -6.5807403285        2.0057328572       -0.1529545656
 C         -5.5376143679        0.1487295335        0.1456877494
 H         -4.8198077394       -0.0719467913       -0.6475091685
 H         -6.5007372657       -0.2576771384       -0.1710032237
 C         -5.1225304708       -0.6048801734        1.4094262411
 H         -5.0361342639       -1.6662604610        1.1633187102
 H         -5.8974640934       -0.4983275606        2.1718245415
 C         -3.7847333474       -0.1486423662        2.0070911864
 H         -3.9001358152        0.8193336646        2.4953601397
 H         -3.4733747572       -0.8808387277        2.7564628893
 H         -4.7964467995        3.5224632437       -0.3136035220
 H         -4.3765640461        2.1527073507       -1.3447618471
 H         -3.3045943766        2.5603599492        1.4817478727
 H         -2.4912015519        3.1134638447        0.0092485085
 O         -1.5523329650        1.0770143306       -0.7444775926
 C         -0.7880219586       -0.0340154338       -1.0801608752
 O          0.0040446493        0.1810512229       -2.0176986909
 O         -2.1017868298       -2.3308852329        1.3892656049
 C         -0.1513550897       -2.4555206843       -0.6197246123
 C          1.1747325104       -2.4053755083        0.1056399885
 C          1.7271117364       -3.5576370754        0.6551931413
 C          2.9370298795       -3.5093945844        1.3234148649
 C          3.6066640087       -2.3089116572        1.4829934318
 C          3.0618338213       -1.1523446030        0.9395096464
 C          1.8689271179       -1.2129415776        0.2351895036
 H          1.4722701678       -0.3076854227       -0.1938184126
 N          3.6931971444        0.0926426634        1.0798693932
 S          2.7475738236        1.4493820491        1.3539282528
 O          3.6449415826        2.3821395954        2.0078267861
 O          1.5458159584        1.1222453414        2.0883543711
 C          2.3468648731        2.0958805624       -0.2531623573
 C          1.1601365684        2.7838339222       -0.4010293817
 C          0.8551120787        3.3389178308       -1.6323714036
 C          1.7408752440        3.1996098310       -2.6880889872
 C          2.9312127671        2.5096937045       -2.5217548945
 C          3.2432197966        1.9529742167       -1.2924230829
 H          4.1543172001        1.4008940165       -1.1310332496
 H          3.6135737952        2.3970255457       -3.3490278323
 H          1.4960078494        3.6243563434       -3.6489219791
 H         -0.0775289644        3.8635631733       -1.7660138546
 H          0.4900366812        2.8498579843        0.4426652207
 H          4.5220583699        0.0928110570        1.6569279538
 H          4.5372915762       -2.2642710142        2.0278012974
 H          3.3544445281       -4.4114785651        1.7440763317
 H          1.1948500462       -4.4929469568        0.5697869363
 H         -0.7286838829       -3.2868505916       -0.1906677017
 C          0.0764467272       -2.7398611917       -2.0927809544
 C          0.2596277607       -4.1521975669       -2.5572081758
 C         -1.0014852591       -3.4125878381       -2.8867394145
 H         -1.1672799397       -3.0910899603       -3.9036904561
 H         -1.9058875499       -3.6892431001       -2.3641360238
 H          0.9658962393       -4.3432727192       -3.3502105299
 H          0.2029039843       -4.9383870709       -1.8201352574
 H          0.6486712157       -1.9661987344       -2.5881148112
