  62
        -98.94665016
 C          1.1852673012        1.3631571797        0.2764489306
 C          1.3692000713        0.3111800497       -0.6535534093
 C          2.3566826710       -0.7084443705       -0.2746958890
 C          2.9485848806       -0.6604289507        0.9314280011
 C          3.9607186003       -1.6372372909        1.4649464314
 C          5.4006215305       -1.3341789712        1.0278383119
 C          5.7102893209       -1.6386581412       -0.4385680980
 H          6.7949031909       -1.5879494714       -0.5535005277
 H          5.4070051007       -2.6604606712       -0.6687259781
 C          5.0633608614       -0.6696944711       -1.4383240182
 H          5.8037277717       -0.3681984212       -2.1828619379
 H          4.7493295214        0.2371069290       -0.9162287883
 C          3.8667409915       -1.2441263808       -2.1974250186
 H          4.1974807615       -2.0722663909       -2.8281685985
 H          3.4700845219       -0.4622677707       -2.8500892687
 C          2.7250391911       -1.7387679106       -1.2988777189
 H          1.8463618713       -1.9153817504       -1.9233312992
 H          3.0078496208       -2.6738595807       -0.8172527089
 H          6.0651930601       -1.9380413913        1.6500722621
 H          5.6160098606       -0.2834833012        1.2355941320
 H          3.6982153602       -2.6504982108        1.1599039413
 H          3.9114424899       -1.5750537809        2.5541462214
 O          2.6675076905        0.3095642693        1.8405344811
 C          1.8233438708        1.3574877395        1.5219924908
 O          1.7144340007        2.2143471495        2.4217057608
 O          0.7638489817        0.2072171698       -1.7536652095
 C          0.2934845616        2.5683249099        0.0126181504
 C         -1.1551551586        2.2221705601        0.2532831499
 C         -1.8504719388        2.7649217503        1.3273271297
 C         -3.1699605990        2.4177637505        1.5635824593
 C         -3.8200501389        1.5172585307        0.7380129990
 C         -3.1275782786        0.9625396806       -0.3300051508
 C         -1.8110952285        1.3216106803       -0.5742283203
 H         -1.2737634783        0.8705992602       -1.3953355402
 N         -3.7659624186       -0.0042423193       -1.1439525010
 S         -3.9924390991       -1.4866210093       -0.3980449911
 O         -4.4633210390       -2.3833598692       -1.4282930812
 O         -4.8633224494       -1.3008435791        0.7343509487
 C         -2.3734943794       -1.9929832296        0.1575787994
 C         -1.6600943693       -2.9013949497       -0.5975825604
 C         -0.3922163895       -3.2714024600       -0.1808032100
 C          0.1452855002       -2.7135906001        0.9682972002
 C         -0.5756449098       -1.7877437200        1.7055927100
 C         -1.8502054496       -1.4248946497        1.3023692496
 H         -2.4417398397       -0.7195069296        1.8633620694
 H         -0.1465153700       -1.3412850901        2.5894284001
 H          1.1319390200       -2.9993244803        1.2957266405
 H          0.1742841905       -3.9882099501       -0.7531132298
 H         -2.1158434591       -3.3094413096       -1.4855934905
 H         -3.2749353583       -0.1574939794       -2.0150475908
 H         -4.8379034290        1.2139787909        0.9211909787
 H         -3.6963259091        2.8490829706        2.4015885391
 H         -1.3429232689        3.4506943802        1.9903140299
 H          0.5850882015        3.3201290598        0.7578836405
 C          0.4995982621        3.1587638998       -1.3690457896
 C          0.0708292825        4.5707804999       -1.6256577497
 C          1.5289014824        4.2291921796       -1.5631390092
 H          2.1015799327        4.2337878295       -2.4785002990
 H          2.0904155722        4.5472854395       -0.6965113890
 H         -0.3607663372        4.8120023800       -2.5849185898
 H         -0.3560761877        5.1216256400       -0.8011347798
 H          0.3754436522        2.4419005099       -2.1696013496
