  62
        -98.93969045
 C         -2.2701859427       -0.9147224308        0.6461217654
 C         -3.4042526715       -0.8530810957       -0.2006695212
 C         -4.3666179012        0.2215096841        0.0901222657
 C         -4.1295398665        1.0712398768        1.1047258342
 C         -4.9958591280        2.2420521717        1.4668402967
 C         -4.5476750767        3.5151108495        0.7354161506
 C         -4.3454391939        3.3260165726       -0.7680963759
 H         -4.0606825284        4.2959931340       -1.1816204765
 H         -3.5033952584        2.6489296231       -0.9312579347
 C         -5.5774169731        2.7934136729       -1.5131603998
 H         -6.4704495863        2.9417777996       -0.9050650135
 H         -5.7089761182        3.3722520738       -2.4297095418
 C         -5.4825541664        1.3230281263       -1.9240039953
 H         -4.5413655502        1.1501932035       -2.4518611409
 H         -6.2949925978        1.1127580398       -2.6245435485
 C         -5.5881414542        0.3044186485       -0.7822630906
 H         -6.4751980771        0.5147749122       -0.1817496894
 H         -5.7025461953       -0.6863421809       -1.2311577298
 H         -5.2932021455        4.2931831326        0.9094879515
 H         -3.6011067206        3.8477374768        1.1682285023
 H         -6.0298312913        2.0121198042        1.2169748439
 H         -4.9188026662        2.4057936161        2.5430324227
 O         -3.0322776938        0.9809344192        1.9001853084
 C         -2.0847641681       -0.0057097893        1.6926860465
 O         -1.1379942696        0.0210072481        2.5065852076
 H          1.3864134725       -1.1562012203        0.7329494252
 C          1.0742421939       -1.1960212545       -0.3003209356
 C         -0.2218383800       -1.5788932146       -0.6166049796
 C         -0.6079528993       -1.6009414700       -1.9529605473
 C          0.2873492840       -1.2420122434       -2.9435894857
 C          1.5773417527       -0.8566050082       -2.6249432019
 C          1.9747898844       -0.8352847017       -1.2928640801
 N          3.2950691657       -0.4920438106       -0.9518688938
 S          3.5878585931        0.3510823130        0.4812924606
 O          3.5255305159       -0.5735678978        1.5848346139
 O          2.7347330612        1.5165043264        0.5574270949
 C          5.2826065088        0.8364998489        0.2099100749
 C          6.2713378391       -0.1163416481        0.3696091300
 C          7.5895738699        0.2400545868        0.1347454810
 C          7.8963445267        1.5361546624       -0.2529483465
 C          6.8940609117        2.4819862185       -0.4064410247
 C          5.5728853474        2.1314440211       -0.1749315905
 H          4.7612391016        2.8342594441       -0.2744255266
 H          7.1355118140        3.4896591466       -0.7040865626
 H          8.9233357656        1.8115541477       -0.4337462447
 H          8.3716445190       -0.4919660123        0.2557272133
 H          5.9857925180       -1.1073125306        0.6815378281
 H          3.7960952757       -0.0737941932       -1.7246527172
 H          2.2738458726       -0.5762561757       -3.4006841256
 H         -0.0245981933       -1.2578327720       -3.9770598653
 H         -1.6196814941       -1.8797116483       -2.2028460602
 C         -1.1747490537       -1.9591471851        0.4920796138
 H         -0.6088437975       -1.9308858324        1.4337916490
 C         -1.7101645559       -3.3651173599        0.3002931267
 C         -0.8100930719       -4.5244890244        0.5987701955
 C         -1.9656196033       -4.2194539240        1.5032979501
 H         -2.8192922529       -4.8803120152        1.4935320706
 H         -1.7555521346       -3.7916925963        2.4733728219
 H         -0.8680479352       -5.3977618394       -0.0324061724
 H          0.1849239210       -4.3032858110        0.9560826311
 H         -2.3974640880       -3.4577578057       -0.5295215563
 O         -3.6289919271       -1.6446553445       -1.1535600670
