  62
        -98.94031239
 C         -1.4436695825       -1.5630514197       -0.0643405087
 C         -2.4258607155       -1.0781773340        0.8258988727
 C         -3.1553424014        0.1376129056        0.4153507033
 C         -2.8276988620        0.7244489516       -0.7514113320
 C         -3.4024271967        1.9811256875       -1.3481906016
 C         -2.8828734120        3.2582980380       -0.6670596110
 C         -2.7989967353        3.1920675141        0.8556280442
 H         -2.1741117701        2.3444449545        1.1437131704
 H         -2.2939158431        4.0976216099        1.2017810434
 C         -4.1413571521        3.1034393727        1.5776841683
 H         -3.9376263940        3.1265943528        2.6514881539
 H         -4.7373811193        3.9860652821        1.3347915223
 C         -4.9772643331        1.8582545618        1.2781030664
 H         -5.4494266997        1.9310211607        0.3022269724
 H         -5.7872219269        1.8248518545        2.0128774963
 C         -4.2229894646        0.5381452639        1.4052105803
 H         -4.9533626937       -0.2805347993        1.3982000279
 H         -3.7498189942        0.4909404947        2.3929229115
 H         -3.5225623459        4.0916829641       -0.9615630847
 H         -1.8760771144        3.4501622250       -1.0416276140
 H         -3.0969704490        1.9975439126       -2.3963516486
 H         -4.4875329529        1.9389389187       -1.3220456872
 O         -1.8499421888        0.2353909926       -1.5661109791
 C         -1.1474643127       -0.9160448778       -1.2638011795
 O         -0.3080030752       -1.2524317639       -2.1179525879
 O         -2.6840348846       -1.6311922884        1.9309358512
 C         -0.6660711230       -2.8148548257        0.2967043678
 C          0.8115888712       -2.5120069979        0.3173185691
 C          1.7654359767       -3.3101107467       -0.2994081242
 C          3.1048099926       -2.9592742861       -0.2634343529
 C          3.5235165084       -1.8161207930        0.3914031008
 C          2.5777154236       -1.0140690909        1.0191063344
 C          1.2382653083       -1.3685945755        0.9833248062
 H          0.5038996415       -0.7405772558        1.4733957605
 N          2.9924315099        0.1514590827        1.6980756665
 S          3.7271256942        1.3694273549        0.8162265254
 O          4.8983612876        0.8354734785        0.1702634993
 O          3.9476807796        2.4423566674        1.7588064750
 C          2.5341843833        1.8847586526       -0.4061859827
 C          2.2643935511        1.0547187275       -1.4761486006
 C          1.3168743417        1.4494330588       -2.4072014726
 C          0.6653844335        2.6635527336       -2.2567480381
 C          0.9510214680        3.4885251905       -1.1791650397
 C          1.8878143590        3.0934096848       -0.2384106668
 H          2.1391528987        3.7010982485        0.6160441727
 H          0.4491756311        4.4369746453       -1.0681827510
 H         -0.0695280826        2.9645995147       -2.9872245842
 H          1.0775193228        0.7938352947       -3.2285907346
 H          2.7862402523        0.1163979375       -1.5719729642
 H          2.2653523019        0.5563804370        2.2712349867
 H          4.5596210488       -1.5202271838        0.4098548255
 H          3.8340133620       -3.5861506736       -0.7539699241
 H          1.4614481862       -4.2045725423       -0.8175469986
 H         -0.9800881041       -3.0733512227        1.3191196605
 C         -1.0407856798       -3.9529969107       -0.6292271624
 C         -0.9669226984       -5.3720995933       -0.1528066386
 C         -2.2996872621       -4.7191144743       -0.3587647242
 H         -2.9049062188       -5.0301565432       -1.1970306546
 H         -2.8735125947       -4.4371062258        0.5120576527
 H         -0.6592050284       -6.1359752367       -0.8509134326
 H         -0.6382766111       -5.5430687027        0.8611804016
 H         -0.7953156149       -3.7445964168       -1.6645890511
