  62
        -98.93842882
 C         -0.8833847210       -1.7557942873        0.0716136829
 C         -1.7387143971       -1.2368784032        1.0685502432
 C         -2.7347358833       -0.2395560767        0.6358950423
 C         -2.7780102196        0.1164638740       -0.6605995962
 C         -3.7123198485        1.0836130043       -1.3429823864
 C         -5.1947855760        1.0085734562       -0.9457899790
 C         -5.6654246953        2.2129199415       -0.1283539943
 H         -5.2060496979        3.1139078783       -0.5401301417
 H         -6.7462341401        2.3160822076       -0.2478516945
 C         -5.3730233530        2.1361984324        1.3693250565
 H         -6.0347176702        1.3990152027        1.8294686490
 H         -5.6188662282        3.1077036125        1.8047234360
 C         -3.9303881176        1.7839743500        1.7380648190
 H         -3.2298598008        2.3036905184        1.0856682046
 H         -3.7484862192        2.1447070711        2.7528209435
 C         -3.6425318950        0.2752988810        1.7193462838
 H         -3.1519114509       -0.0166057963        2.6533526797
 H         -4.5822663210       -0.2839328787        1.6901222433
 H         -5.3894979425        0.0837778118       -0.4051699875
 H         -5.7845355959        0.9751588838       -1.8633103008
 H         -3.3410322813        2.0984440671       -1.1842088503
 H         -3.6062988927        0.8728455134       -2.4093528838
 O         -1.9025766647       -0.3795261460       -1.5797446904
 C         -0.9279993088       -1.3031415668       -1.2466633249
 O         -0.1898190054       -1.6352730216       -2.1907082708
 H          1.0232963175       -0.5900443518        1.6394393479
 C          1.7910179729       -0.9986504112        0.9938601371
 C          1.5300515222       -2.1743203521        0.2986757121
 C          2.5217871639       -2.6902791653       -0.5232242522
 C          3.7352870967       -2.0345995800       -0.6534929716
 C          3.9884668540       -0.8621711792        0.0344241631
 C          3.0044179833       -0.3436592812        0.8671388342
 N          3.2469572620        0.8595697769        1.5688002176
 S          3.4144280074        2.2310392327        0.6223095119
 O          4.6123675614        2.1060248022       -0.1670012102
 O          3.3650767050        3.3450280708        1.5414926344
 C          1.9809140905        2.2493978128       -0.4387251133
 C          0.8665503499        2.9595726810       -0.0395425942
 C         -0.2575316424        2.9508464437       -0.8489481764
 C         -0.2522311858        2.2260853590       -2.0307104044
 C          0.8689955955        1.5044543442       -2.4091286690
 C          1.9987413878        1.5147160090       -1.6075041951
 H          2.8898125818        0.9711446584       -1.8758308542
 H          0.8597319501        0.9202002848       -3.3149532649
 H         -1.1260710581        2.2154165858       -2.6625997303
 H         -1.1309379867        3.5118270918       -0.5555018851
 H          0.9059428746        3.5167380239        0.8829721518
 H          2.5555709036        1.0395150249        2.2840673232
 H          4.9201702530       -0.3305480105       -0.0718329499
 H          4.4947907858       -2.4430665581       -1.3027914791
 H          2.3427432230       -3.5994307356       -1.0726837674
 C          0.1617215253       -2.7870327984        0.4616910190
 H         -0.0003052928       -2.9768006058        1.5327632155
 C         -0.0325714485       -4.0805035582       -0.2981796732
 C          0.4928313729       -5.3646534973        0.2682835553
 C         -0.9826423602       -5.1046568877        0.2434794599
 H         -1.5941308516       -5.6593956028       -0.4521978002
 H         -1.4793037869       -4.8795437773        1.1761296394
 H          0.9993369041       -5.3200290739        1.2205705370
 H          0.8942415997       -6.1024692861       -0.4096388072
 H         -0.0061145839       -3.9451992267       -1.3730134140
 O         -1.6715553122       -1.5875707430        2.2795203999
