  62
        -98.94857640
 C         -1.2403790387       -1.5919859720        0.1666179529
 C         -1.6904617995       -0.7096970656        1.1771686561
 C         -2.9235518335        0.0275737406        0.8840390544
 C         -3.5324726507       -0.1392864121       -0.3040390997
 C         -4.8127026691        0.5182648235       -0.7428541017
 C         -4.6270370271        1.9339097306       -1.3050425848
 C         -4.3200944848        3.0119543636       -0.2649767015
 H         -4.4458800047        3.9774967611       -0.7590574453
 H         -5.0538017560        2.9595169913        0.5404591206
 C         -2.9033892470        2.9447638716        0.3216053657
 H         -2.2553273433        2.3522637728       -0.3292078641
 H         -2.4708802457        3.9481236254        0.3474475850
 C         -2.8254248044        2.3867354110        1.7425637773
 H         -3.3273359864        3.0698211931        2.4322770454
 H         -1.7701032648        2.3393994410        2.0240972467
 C         -3.4334727254        0.9889552510        1.9151319262
 H         -3.1402822404        0.6086707449        2.8971298700
 H         -4.5211396994        1.0474776791        1.8733617388
 H         -3.8281125980        1.9132943494       -2.0503241865
 H         -5.5535039103        2.2058484656       -1.8165672471
 H         -5.2307572225       -0.1129047807       -1.5301457853
 H         -5.5155146880        0.5459914520        0.0905951495
 O         -3.0498672294       -0.9716005630       -1.2645906674
 C         -1.8867088638       -1.7021187487       -1.0641674039
 O         -1.5467933052       -2.4016793435       -2.0376262987
 H          0.4783107536        0.0593524621       -0.5453455620
 C          1.2074496003       -0.6416940023       -0.9197036606
 C          1.1081896352       -1.9814349105       -0.5732981783
 C          2.0377363428       -2.8697499116       -1.1005825174
 C          3.0264908876       -2.4189740014       -1.9582007493
 C          3.1300916954       -1.0791835017       -2.2865235536
 C          2.2077782459       -0.1821837751       -1.7603500592
 N          2.2687460775        1.1880190147       -2.0544251329
 S          1.8433401728        2.2937136662       -0.8731818477
 O          0.4114787188        2.3439947509       -0.7240486724
 O          2.4759749186        3.5256371023       -1.2960371929
 C          2.6322410151        1.6921023383        0.6099146668
 C          4.0130402829        1.7414751257        0.6506229959
 C          4.6733072088        1.2337924437        1.7566167596
 C          3.9452681425        0.6805585927        2.7996531896
 C          2.5611922558        0.6447334516        2.7475139775
 C          1.8945287694        1.1551789028        1.6441794703
 H          0.8176543895        1.1269187958        1.5843495605
 H          1.9840922359        0.2152065468        3.5510652529
 H          4.4578864402        0.2769255991        3.6585209851
 H          5.7499321558        1.2659767155        1.8011803094
 H          4.5427046920        2.1878937313       -0.1753251090
 H          3.0800210163        1.4801280859       -2.5784656812
 H          3.9066813786       -0.7300885107       -2.9494544382
 H          3.7349655640       -3.1212686219       -2.3702830955
 H          1.9828712162       -3.9156588851       -0.8468854405
 C          0.0277190322       -2.3904496186        0.3985135263
 H          0.3671370328       -2.1085993456        1.4077209672
 C         -0.2632437874       -3.8770380651        0.3824982365
 C          0.5197706216       -4.8128886552        1.2530196787
 C         -0.9072177066       -4.4992092406        1.5842739711
 H         -1.6560145118       -5.2617688991        1.4314285553
 H         -1.1084963499       -3.8540305118        2.4271105976
 H          1.2883238287       -4.3879573226        1.8807215997
 H          0.7506404004       -5.7971243663        0.8741679902
 H         -0.5818046105       -4.2263312618       -0.5931122057
 O         -1.0920330547       -0.5516493485        2.2759288314
