  62
        -98.93853737
 C          1.4980346852        0.6859166512       -0.9735204710
 C          1.5394349103        1.5080925922        0.1788282614
 C          0.6008937147        2.6415843856        0.1872659952
 C         -0.2414258049        2.8127192014       -0.8465073498
 C         -1.2390034286        3.9283259293       -0.9715553314
 C         -2.6124728559        3.5473492448       -0.4044820682
 C         -2.5622099264        2.9409818279        0.9979771427
 H         -3.5937731650        2.7672439269        1.3149430193
 H         -2.0756995791        1.9634202486        0.9636169231
 C         -1.8464684508        3.8069844250        2.0434480390
 H         -1.7890731589        4.8409369967        1.6993884845
 H         -2.4380912173        3.8013386643        2.9614510618
 C         -0.4469775621        3.3101385989        2.4128984691
 H         -0.4878573080        2.2353488150        2.6110764694
 H         -0.1407897126        3.8064972943        3.3381304896
 C          0.6488422703        3.5664201418        1.3699952035
 H          0.6150481636        4.6102333146        1.0484559774
 H          1.6147643644        3.3852413077        1.8507424673
 H         -3.2363935593        4.4435447932       -0.3897945229
 H         -3.0799534034        2.8221822600       -1.0750677702
 H         -0.8541176256        4.8040851557       -0.4521445162
 H         -1.3494129136        4.1668195303       -2.0313105206
 O         -0.2875811053        1.9695590063       -1.9109115878
 C          0.5721962658        0.8855300001       -1.9955818586
 O          0.4177777422        0.1859682390       -3.0177786533
 H          0.1898842615       -1.4699697309       -0.3388614079
 C          0.9559072466       -1.7568069399        0.3680614586
 C          2.2700230584       -1.3552848943        0.1342542170
 C          3.2334943455       -1.7488501603        1.0527107526
 C          2.8807002617       -2.4930791764        2.1678883739
 C          1.5673175940       -2.8416452882        2.4147534692
 C          0.5915319971       -2.4561682816        1.5029907588
 N         -0.7661114030       -2.7609943009        1.6977340039
 S         -1.8898370404       -1.5717476169        1.3269548191
 O         -1.3598193641       -0.2471517488        1.5442939143
 O         -3.0578097726       -1.9219448640        2.1103822696
 C         -2.2640810881       -1.8276302458       -0.3934686075
 C         -2.4097008660       -0.7334965617       -1.2217591472
 C         -2.7214104409       -0.9355970512       -2.5562832384
 C         -2.8867259814       -2.2254642956       -3.0352388168
 C         -2.7466293113       -3.3150685863       -2.1887242342
 C         -2.4344907049       -3.1184842450       -0.8533739229
 H         -2.3123676544       -3.9395396096       -0.1668383242
 H         -2.8753659871       -4.3162916800       -2.5674425813
 H         -3.1220056564       -2.3796852142       -4.0764403182
 H         -2.8144842935       -0.0869809956       -3.2148098501
 H         -2.2544193345        0.2539386774       -0.8153401989
 H         -0.9778572499       -3.2130808791        2.5757525540
 H          1.2956834197       -3.3922622280        3.3025394884
 H          3.6471439585       -2.7843078386        2.8704500459
 H          4.2636830170       -1.4656193628        0.9386107501
 C          2.4340182328       -0.5119129427       -1.1081518905
 H          2.0194054055       -1.1048124242       -1.9411250393
 C          3.7902527787       -0.0209755075       -1.5896141164
 C          4.8871624273        0.5016222579       -0.7164687889
 C          5.0805149928       -0.7765885046       -1.4790874792
 H          5.7435315637       -0.7561512061       -2.3316080168
 H          5.0880155669       -1.7151793046       -0.9503552152
 H          5.4176158044        1.3810663543       -1.0529640649
 H          4.7349072031        0.4815664309        0.3501045601
 H          3.6463585996        0.5169877603       -2.5249935510
 O          2.3280911912        1.3250706653        1.1402905348
