  62
        -98.93821782
 C         -2.4754193234       -0.7691708341        0.0188201338
 C         -2.8186845119        0.3957126824        0.7524786563
 C         -3.9149583765        1.2100183900        0.2150225467
 C         -4.5102790988        0.8302762623       -0.9300982941
 C         -5.6720611572        1.5340556254       -1.5681383627
 C         -7.0079750998        0.9614507749       -1.0743403664
 C         -7.1034284343        0.8409768944        0.4465989658
 H         -8.0977324990        0.4544778703        0.6807147573
 H         -6.3806966299        0.0977866917        0.7912885306
 C         -6.8751067715        2.1570224463        1.2031659223
 H         -6.9960001358        3.0011021733        0.5232733029
 H         -7.6390055728        2.2527491757        1.9777023037
 C         -5.5176892290        2.2598656114        1.9012425374
 H         -5.5469269648        3.1194348937        2.5762230511
 H         -5.3517894630        1.3695741024        2.5132195656
 C         -4.3053468287        2.4435351374        0.9795854578
 H         -4.4843106859        3.2780284164        0.2984881656
 H         -3.4445391356        2.6907417055        1.6077485885
 H         -7.1384091070       -0.0338837180       -1.5052998657
 H         -7.8139997759        1.5990819024       -1.4419656118
 H         -5.6143195703        2.5969444924       -1.3416253816
 H         -5.6055372118        1.3974063603       -2.6487394506
 O         -4.1433202157       -0.2784304970       -1.6178945103
 C         -3.1207305887       -1.1089137629       -1.1711555014
 O         -2.9085876896       -2.0811111307       -1.9172488874
 H          0.8325949028       -0.8182214636        1.9593498239
 C          0.9993067920       -0.7829640157        0.8911200767
 C         -0.0227391653       -1.1547809459        0.0309829096
 C          0.1998700611       -1.0842576662       -1.3410578061
 C          1.4202843837       -0.6555907714       -1.8295269056
 C          2.4362724614       -0.2795485835       -0.9674933464
 C          2.2237371027       -0.3415816620        0.4027609750
 N          3.2348269624        0.0653904254        1.2841406412
 S          4.8228455013       -0.3896810391        1.0070817538
 O          4.8978885342       -1.6663368078        0.3361544519
 O          5.4655052392       -0.3041883112        2.2998808810
 C          5.4594955900        0.8966913572       -0.0461697638
 C          5.2986530060        2.2081253403        0.3559674295
 C          5.7978922719        3.2202506792       -0.4479734642
 C          6.4486984920        2.9058974687       -1.6318193036
 C          6.6053147462        1.5841770149       -2.0197691523
 C          6.1071571968        0.5669237318       -1.2205143543
 H          6.2004782998       -0.4742831781       -1.4857135374
 H          7.1116822361        1.3419974577       -2.9403366650
 H          6.8357767087        3.6959423802       -2.2557882656
 H          5.6770964521        4.2493574969       -0.1500736169
 H          4.7882277102        2.4118737697        1.2825433000
 H          2.9899652047       -0.0003137817        2.2609220540
 H          3.3866114822        0.0575723424       -1.3474659938
 H          1.5820419476       -0.6084719198       -2.8958457791
 H         -0.5933141250       -1.3704616685       -2.0153849261
 C         -1.3474333244       -1.6129959780        0.5857953874
 H         -1.3464282653       -1.3845769912        1.6637439507
 C         -1.5756959788       -3.1111363907        0.4455639449
 C         -0.7543166385       -4.0050806495       -0.4290667878
 C         -0.6013771914       -4.0736473213        1.0589117961
 H         -0.9825297566       -4.9363259615        1.5840096320
 H          0.3023775047       -3.6615663948        1.4836696584
 H         -1.2648028843       -4.8075585981       -0.9391199418
 H          0.0485817748       -3.5691582920       -1.0020412053
 H         -2.6266993022       -3.3676887027        0.5316266036
 O         -2.2335209130        0.7329816501        1.8173724340
