  62
        -98.93421641
 C         -2.2921470890        0.7431876202        0.1383722286
 C         -3.5762822067        1.1126346020       -0.3251691828
 C         -4.7180598822        0.4039967706        0.2757242417
 C         -4.4914511222       -0.5326833285        1.2128229454
 C         -5.4975077580       -1.3483929699        1.9862549992
 C         -6.6933058806       -1.9202149612        1.2123614611
 C         -6.3988790674       -2.3080036258       -0.2440713901
 H         -5.3224480273       -2.2956159827       -0.4240981272
 H         -6.7458892540       -3.3285048163       -0.4165149668
 C         -7.0971246183       -1.3972864345       -1.2569033240
 H         -7.1583237833       -1.9191847633       -2.2149028238
 H         -8.1192897460       -1.2160244195       -0.9177346858
 C         -6.4111538882       -0.0564029842       -1.5152930439
 H         -5.4806969556       -0.2160186194       -2.0667909454
 H         -7.0650875418        0.5379953886       -2.1578045722
 C         -6.0728054459        0.7669963017       -0.2617859811
 H         -6.0068725359        1.8173431023       -0.5581060397
 H         -6.8460787031        0.6679394657        0.4958673944
 H         -7.0317061651       -2.8000521645        1.7621700810
 H         -7.5142957992       -1.2049372662        1.2299248947
 H         -4.9204402369       -2.1657513980        2.4254326324
 H         -5.8666389072       -0.7352825537        2.8136069811
 O         -3.2337882718       -0.8575138958        1.6303361038
 C         -2.1082956959       -0.2389031457        1.1094671411
 O         -1.0309646009       -0.6472804484        1.5852565043
 O         -3.7623576805        2.0000569378       -1.2002616879
 C         -1.0739477223        1.4437089906       -0.4333103154
 C         -0.1178662429        0.4389244728       -1.0264664678
 C         -0.6097800592       -0.5173663691       -1.9116830923
 C          0.2295083364       -1.4614556425       -2.4690395499
 C          1.5775438449       -1.4723824789       -2.1564826668
 C          2.0834664297       -0.5118570731       -1.2891018267
 C          1.2373563127        0.4405282011       -0.7366975019
 H          1.6528809603        1.1692071700       -0.0623782598
 N          3.4614943468       -0.4727419017       -1.0080792019
 S          4.0173913518       -0.0406435107        0.5257247160
 O          3.4715556297       -0.9223077493        1.5336236962
 O          3.8104279730        1.3713052064        0.7233569151
 C          5.7589726826       -0.3597729487        0.3061531561
 C          6.5065266946        0.5508421449       -0.4167469022
 C          7.8546904168        0.3018222347       -0.6174709753
 C          8.4305824952       -0.8467257575       -0.0945293786
 C          7.6686870337       -1.7496787252        0.6313071074
 C          6.3187683395       -1.5074753058        0.8338699018
 H          5.6887660409       -2.1771162608        1.3972835199
 H          8.1194827975       -2.6397987759        1.0397702883
 H          9.4804867683       -1.0377217893       -0.2511106603
 H          8.4509378573        1.0028527773       -1.1789114237
 H          6.0178704105        1.4331929900       -0.7954544273
 H          3.9360498304       -1.3101247050       -1.3198460181
 H          2.2321785461       -2.2169005507       -2.5836988050
 H         -0.1686903174       -2.2016099342       -3.1469767958
 H         -1.6654654352       -0.5147502406       -2.1480876179
 H         -1.4560603358        2.0781013870       -1.2477167800
 C         -0.4403198267        2.3328256239        0.6157379316
 C          0.3128904330        3.5626070581        0.2083865353
 C         -1.0236301946        3.6884817735        0.8739160618
 H         -1.0643690410        4.0463156637        1.8917800535
 H         -1.8695869522        3.9849270828        0.2710754419
 H          1.1985609299        3.8287897365        0.7658711425
 H          0.3754851157        3.7806870968       -0.8470650575
 H         -0.0769249152        1.7731324461        1.4720138036
