  62
        -98.94119726
 C         -1.9700593393       -0.9041450458       -0.2189848283
 C         -2.4711705293       -0.2261130150        0.9224058964
 C         -2.6880249308        1.2161819879        0.7872021538
 C         -2.3641865700        1.8286387800       -0.3654987129
 C         -2.4721171158        3.3031016415       -0.6474243272
 C         -3.8704626699        3.7579254233       -1.0877088040
 C         -4.9255574653        3.7775381845        0.0190315361
 H         -4.5453336102        4.3429817796        0.8701926334
 H         -5.7899695820        4.3172848069       -0.3724873709
 C         -5.3800884211        2.3869678205        0.4836657947
 H         -5.0873301445        1.6417465097       -0.2594811257
 H         -6.4700334224        2.3632164153        0.5500737908
 C         -4.8336934669        1.9641853729        1.8473094877
 H         -5.1899210267        0.9533795603        2.0608007698
 H         -5.2230700037        2.6297130155        2.6207780445
 C         -3.3019156893        1.9540533358        1.9387948550
 H         -2.9193013417        2.9737999309        1.9818429636
 H         -3.0139419093        1.4334476175        2.8553743304
 H         -4.2062775877        3.1111252164       -1.9014814918
 H         -3.7723047271        4.7703241410       -1.4862670163
 H         -1.7672147236        3.5142350961       -1.4548756208
 H         -2.1640596405        3.8646699264        0.2352773985
 O         -1.8689613258        1.1525756874       -1.4337547404
 C         -1.6607181617       -0.2211582727       -1.3959779830
 O         -1.2179341363       -0.6789001959       -2.4685999210
 O         -2.7291430547       -0.8101858110        2.0104132837
 C         -1.7025694895       -2.3882813319       -0.0456255420
 C         -0.3029494823       -2.6099043327        0.4825785292
 C         -0.0621739716       -3.5308791012        1.4959714473
 C          1.2137397690       -3.7058037764        2.0007075779
 C          2.2674347440       -2.9462007732        1.5257517493
 C          2.0376147758       -2.0272857140        0.5081202866
 C          0.7648005689       -1.8843820477       -0.0236218756
 H          0.6125877644       -1.1729763797       -0.8215069941
 N          3.0761365718       -1.2306317159        0.0004719227
 S          2.7042985341        0.3720675273       -0.3964317543
 O          1.7276628665        0.8981117220        0.5308727279
 O          2.3748850962        0.4405785115       -1.7976320533
 C          4.2888285273        1.1468070305       -0.1228162184
 C          5.2291108337        1.1255179016       -1.1356209945
 C          6.4711417763        1.6971746952       -0.9086538925
 C          6.7514763633        2.2760978420        0.3202190801
 C          5.7974915034        2.2910304467        1.3267020968
 C          4.5537994098        1.7198872685        1.1067420707
 H          3.7772390271        1.7155535214        1.8548824579
 H          6.0162659393        2.7444753226        2.2799830827
 H          7.7184165010        2.7210715383        0.4937373811
 H          7.2137667080        1.6898479825       -1.6899793377
 H          4.9605651432        0.6730115041       -2.0760396348
 H          3.9263000497       -1.2947389445        0.5441175244
 H          3.2583757449       -3.0592873643        1.9383403900
 H          1.3858925787       -4.4233983301        2.7882917913
 H         -0.8873521591       -4.0961699227        1.9023674157
 H         -2.4029726615       -2.7230781410        0.7331836246
 C         -1.9323807926       -3.2264413527       -1.2870975436
 C         -2.3001503361       -4.6715607736       -1.1398584968
 C         -3.3196721005       -3.6837475366       -1.6200023567
 H         -3.6174283616       -3.7029695676       -2.6573264579
 H         -4.1127553094       -3.3994261857       -0.9436784065
 H         -1.8947739040       -5.3774207522       -1.8480956193
 H         -2.4102582115       -5.0636954646       -0.1405197369
 H         -1.2888290086       -2.9502153673       -2.1123249683
