  62
        -98.94120180
 C         -2.6649800540       -0.3260284211       -0.5175345155
 C         -3.0404883457        0.5999694910        0.4923455460
 C         -2.7367874986        2.0093631923        0.2344299746
 C         -2.1625199165        2.3617375500       -0.9294454625
 C         -1.7567182764        3.7516718338       -1.3351814403
 C         -0.3766633755        4.1563127236       -0.7974951049
 C         -0.3337824015        4.4792247831        0.6967527842
 H          0.6182838393        4.9776815037        0.8892477969
 H         -1.1289240432        5.1848907243        0.9411282778
 C         -0.4337456279        3.2492468174        1.6104286980
 H         -0.1923443266        2.3478254241        1.0394634226
 H          0.3175111883        3.3206337518        2.4012175479
 C         -1.7904349547        3.0714570244        2.2940509986
 H         -1.7591820138        2.1425460532        2.8697710188
 H         -1.9572200796        3.8958127035        2.9915337212
 C         -2.9853869080        2.9959448607        1.3345627930
 H         -3.1996614685        3.9811735086        0.9213612237
 H         -3.8558591317        2.6532073773        1.8994352525
 H          0.3311842791        3.3502830887       -1.0089010745
 H         -0.0552646114        5.0420148652       -1.3506920448
 H         -2.5065900882        4.4702648302       -1.0036595035
 H         -1.7198619405        3.7613565502       -2.4265654821
 O         -1.8817620122        1.4579254557       -1.9009480731
 C         -2.0580848136        0.0965658859       -1.7000643702
 O         -1.6451964618       -0.5952133297       -2.6550409650
 O         -3.5987315063        0.2544374247        1.5681233641
 C         -2.8190937693       -1.7962150251       -0.1566745286
 C         -1.5470526311       -2.2193059567        0.5417133203
 C         -1.5498584518       -2.7149425304        1.8393310083
 C         -0.3598799893       -2.9692080328        2.5009949960
 C          0.8551824442       -2.7110420832        1.8913521214
 C          0.8640526812       -2.2297924363        0.5904707972
 C         -0.3252099295       -2.0127229807       -0.0829790500
 H         -0.3005589672       -1.6236509818       -1.0908957537
 N          2.1038700096       -1.8662943523       -0.0116507194
 S          2.4681284700       -0.2598033473        0.4071244679
 O          2.4511142655       -0.1641265705        1.8444574429
 O          1.6046301307        0.6562368433       -0.3086639748
 C          4.1418680440       -0.1249766821       -0.1910783043
 C          5.1584919688       -0.6620950532        0.5748461268
 C          6.4579529633       -0.6050204539        0.0976319676
 C          6.7172267504       -0.0170012203       -1.1316284297
 C          5.6862211304        0.5180201356       -1.8887307345
 C          4.3836834573        0.4625764355       -1.4172907448
 H          3.5515867290        0.8706124435       -1.9693236571
 H          5.8897216510        0.9764452235       -2.8431529487
 H          7.7292737560        0.0265317145       -1.5019138326
 H          7.2626381989       -1.0185527200        0.6837846322
 H          4.9083185083       -1.1013747303        1.5260144326
 H          2.0216988472       -1.8847042055       -1.0219473172
 H          1.7879274386       -2.8510586045        2.4118614155
 H         -0.3801825874       -3.3457523275        3.5123902452
 H         -2.4929091626       -2.8668314036        2.3436395808
 H         -3.6346509419       -1.8382005988        0.5779727093
 C         -3.1584997795       -2.7168272414       -1.3089346209
 C         -3.7763867619       -4.0492387644       -1.0105427789
 C         -4.5952223618       -2.9693597669       -1.6498867979
 H         -4.8646341656       -3.0689972975       -2.6903569618
 H         -5.3453575872       -2.4748059555       -1.0502949979
 H         -3.4834971725       -4.8965777454       -1.6108862265
 H         -3.9735044268       -4.2889516826        0.0232367261
 H         -2.4572395350       -2.6581343114       -2.1304640658
