  62
        -98.93918641
 C          2.2408811545        0.8739016621       -0.0298536866
 C          3.2471177198        0.6708022851        0.9447411349
 C          4.1445951540       -0.4847304822        0.7569853392
 C          3.9396452325       -1.2954503198       -0.2977438341
 C          4.7352694526       -2.5047334765       -0.7116030808
 C          6.0730276382       -2.1355653088       -1.3734548503
 C          6.8523275570       -1.0254404228       -0.6730155734
 H          7.7169655839       -0.7833628608       -1.2965967039
 H          6.2304537243       -0.1300080320       -0.6202296923
 C          7.3654519627       -1.3710554037        0.7228328588
 H          7.9728906574       -0.5283494234        1.0626604756
 H          8.0172689509       -2.2451643388        0.6583942358
 C          6.2944120030       -1.6410951856        1.7817065656
 H          6.7906879770       -1.6284259395        2.7565016544
 H          5.8692403525       -2.6344097847        1.6656291266
 C          5.1839540028       -0.5972044478        1.8464453402
 H          4.6200333612       -0.7456411865        2.7752803726
 H          5.6325179056        0.3984058791        1.9389882859
 H          5.8637508181       -1.8028725237       -2.3931505689
 H          6.6881098925       -3.0350992202       -1.4320439421
 H          4.1254011459       -3.0471968675       -1.4376075885
 H          4.8915627401       -3.1580334808        0.1416963323
 O          2.9412855418       -1.0749848750       -1.2000198483
 C          2.0729953693       -0.0035170814       -1.1001404317
 O          1.2258990564        0.0497838547       -2.0139424231
 O          3.4020601561        1.4319513701        1.9372494469
 C          1.3013864343        2.0554589464        0.1494251264
 C         -0.0582924347        1.5184966639        0.5211994645
 C         -0.3219814436        1.1903549307        1.8483486201
 C         -1.5328771991        0.6305067601        2.2092713308
 C         -2.5028268572        0.3764568785        1.2545913818
 C         -2.2417608091        0.6827338247       -0.0735877290
 C         -1.0336704903        1.2673852534       -0.4308690756
 H         -0.8394608284        1.4870334157       -1.4687081473
 N         -3.2130591269        0.4167290647       -1.0541809618
 S         -3.9642759880       -1.0841920774       -1.0414536140
 O         -3.1189978577       -2.1085858389       -0.4723765673
 O         -4.4082143461       -1.2965425775       -2.4021505563
 C         -5.3930034789       -0.8254275418       -0.0080848253
 C         -5.6528171318       -1.6884266665        1.0383999392
 C         -6.7782367372       -1.4755353820        1.8196412959
 C         -7.6199003449       -0.4096438400        1.5413487941
 C         -7.3463445643        0.4466702503        0.4850511374
 C         -6.2239837841        0.2385339773       -0.3004468578
 H         -5.9771487747        0.8783586848       -1.1310293613
 H         -8.0030375748        1.2746441792        0.2717532382
 H         -8.4941671025       -0.2454289177        2.1512902465
 H         -6.9922822704       -2.1406603310        2.6408160758
 H         -4.9662502183       -2.4999190564        1.2212152084
 H         -2.9079069039        0.6492598684       -1.9887604513
 H         -3.4444016967       -0.0720372061        1.5263538387
 H         -1.7245711809        0.3852514487        3.2428628155
 H          0.4440578269        1.3667011024        2.5905252679
 H          1.6963131498        2.6101545156        1.0110518849
 C          1.2903476064        2.9709173308       -1.0565024222
 C          0.6883065909        4.3375366707       -0.9298086256
 C          2.1723906925        4.1819098519       -1.0649114927
 H          2.6400603326        4.4705197771       -1.9943777773
 H          2.7869034716        4.3583935059       -0.1944014443
 H          0.1347002824        4.7373757165       -1.7654841990
 H          0.2937160852        4.6177802869        0.0350088363
 H          1.1664880878        2.4459137307       -1.9958273004
