  62
        -98.93064354
 C         -1.7928417521       -1.3011063012       -0.4984555488
 C         -2.6980431143       -1.1509003540        0.5818538784
 C         -3.8583726300       -0.2657406136        0.3815075764
 C         -3.9807137713        0.3815583783       -0.7906680894
 C         -5.0572977039        1.3390267772       -1.2361238003
 C         -5.5036364493        2.3960993066       -0.2142644486
 C         -6.9108261400        2.1557997770        0.3355041855
 H         -7.3167659384        3.1083640299        0.6832956337
 H         -7.5478928095        1.8089674648       -0.4807588217
 C         -6.9939923401        1.1667627980        1.4967646601
 H         -8.0518869628        0.9838047508        1.6992180383
 H         -6.5662180174        1.6240987947        2.3915544507
 C         -6.2997182457       -0.1765268812        1.2630111571
 H         -6.7545569240       -0.9082397909        1.9340327682
 H         -6.4752370672       -0.5252304351        0.2459537173
 C         -4.7920692400       -0.1496363050        1.5552294707
 H         -4.5368061415        0.7517006818        2.1202775587
 H         -4.5264824676       -0.9924835815        2.2010281107
 H         -4.7821256979        2.4517254532        0.5996214894
 H         -5.4987681871        3.3654444470       -0.7156319142
 H         -5.9206751231        0.7583651170       -1.5707298936
 H         -4.6496611946        1.8288094501       -2.1235913613
 O         -3.0854390698        0.2133490594       -1.8035921538
 C         -1.9759387064       -0.6201550823       -1.7013611755
 O         -1.2879747344       -0.6507516797       -2.7364235918
 O         -2.5430768458       -1.7514258425        1.6798978357
 C         -0.6002278710       -2.2015460643       -0.2261350008
 C          0.3943529437       -1.4747689162        0.6451821520
 C          0.9356868877       -2.0926180164        1.7672348148
 C          1.8284636121       -1.4219557794        2.5834090791
 C          2.2131986858       -0.1281888317        2.2817616673
 C          1.6811554145        0.4975803738        1.1605762146
 C          0.7711765690       -0.1706331841        0.3541337941
 H          0.3578275716        0.3345698516       -0.5070215155
 N          2.0666956962        1.8118438601        0.8098522555
 S          3.0477239465        1.9358239550       -0.5438902182
 O          3.3915609361        3.3364493566       -0.6470994371
 O          2.3886261787        1.3391007370       -1.6745741948
 C          4.4979902101        0.9925268753       -0.1031346689
 C          4.4726644640       -0.3798049613       -0.2541101097
 C          5.5682873535       -1.1188792956        0.1636993656
 C          6.6620392249       -0.4772365674        0.7245762890
 C          6.6723955291        0.9019973103        0.8688285446
 C          5.5783640469        1.6461182244        0.4571393038
 H          5.5429948414        2.7200742527        0.5453778526
 H          7.5257261484        1.3986297543        1.3018810321
 H          7.5119054995       -1.0564057748        1.0493646421
 H          5.5599694312       -2.1909003130        0.0503279673
 H          3.6078675001       -0.8436309451       -0.7007098046
 H          2.4977087761        2.3188833056        1.5715372014
 H          2.9118502453        0.4006682619        2.9127205613
 H          2.2308156143       -1.9105053592        3.4572371526
 H          0.6316864206       -3.1001895460        2.0088296612
 H         -0.9993752944       -3.0357055546        0.3747983278
 C          0.0400554247       -2.8114735277       -1.4616029234
 C          1.2170954767       -2.2116780352       -2.1633275445
 C          1.3864419911       -3.4685498340       -1.3667381751
 H          1.5457620639       -4.3947504364       -1.8975991424
 H          1.9089330886       -3.4002639315       -0.4242506810
 H          1.2316060313       -2.2681415347       -3.2412204368
 H          1.6190634462       -1.2817221225       -1.7911541398
 H         -0.6968447466       -3.2915018001       -2.0974234885
