  62
        -98.93726259
 C         -1.7325645296       -1.4591142880       -0.0287560171
 C         -3.0381427846       -1.2680636402        0.4931059680
 C         -3.8278283442       -0.1557108580       -0.0639493217
 C         -3.2705642906        0.6301913647       -1.0007875608
 C         -3.8516450899        1.8627840926       -1.6364608583
 C         -3.4276710993        3.1218463618       -0.8602941393
 C         -4.3525862731        3.5082709304        0.2926922963
 H         -3.8821753801        4.3396486011        0.8225302085
 H         -5.2994376243        3.8718502502       -0.1121400437
 C         -4.6457297002        2.3902824352        1.2964535626
 H         -3.7257154821        1.8478460159        1.5222837685
 H         -4.9831534458        2.8540186543        2.2254204687
 C         -5.7234455920        1.4093092476        0.8115318334
 H         -6.2252878394        1.8299550600       -0.0596913183
 H         -6.4874891557        1.2993513269        1.5841351289
 C         -5.2196663981       -0.0039379360        0.4869355666
 H         -5.2236653293       -0.6081845592        1.3997382053
 H         -5.9217300148       -0.4818300682       -0.2051510392
 H         -2.4170822310        2.9569655731       -0.4779796335
 H         -3.3831963405        3.9632497576       -1.5546601786
 H         -3.4368194587        1.9179164806       -2.6452179445
 H         -4.9326458024        1.7894256489       -1.7080601061
 O         -2.0125538771        0.4197982724       -1.4704952221
 C         -1.2150809103       -0.6213484535       -1.0184539318
 O         -0.1073815055       -0.6718898334       -1.5828538173
 O         -3.5237091065       -1.9952534593        1.4005299006
 C         -0.8903657991       -2.5572497799        0.6011514432
 C          0.4130300549       -1.9562275289        1.0586478232
 C          0.4737540578       -1.2785375156        2.2726647118
 C          1.6355398589       -0.6418880401        2.6687297426
 C          2.7491355992       -0.6394393109        1.8467389012
 C          2.6890164510       -1.2964656883        0.6247553256
 C          1.5386432533       -1.9781552676        0.2510280484
 H          1.5039791562       -2.4853514171       -0.7001891977
 N          3.7900574574       -1.2461239301       -0.2464911339
 S          4.6019312596        0.2083708684       -0.3912850968
 O          5.1399461046        0.2123124159       -1.7346280983
 O          5.5814897952        0.3109528070        0.6646349918
 C          3.4013882009        1.5196910178       -0.2018297455
 C          3.7265413923        2.5970544902        0.5990979654
 C          2.8190894339        3.6348316930        0.7345902338
 C          1.6023608650        3.5780163482        0.0721130216
 C          1.2919807458        2.4901241857       -0.7280443451
 C          2.1978944033        1.4512080021       -0.8740418661
 H          1.9448258683        0.5960940171       -1.4803121551
 H          0.3440527968        2.4274465240       -1.2400278773
 H          0.8923708604        4.3830619204        0.1802954873
 H          3.0606899620        4.4810847209        1.3574164858
 H          4.6786690315        2.5954203953        1.1048482729
 H          3.5996836171       -1.6424999034       -1.1555100696
 H          3.6586590730       -0.1346973501        2.1306756471
 H          1.6726192606       -0.1301337046        3.6182185475
 H         -0.4063176813       -1.2486536966        2.8998795289
 H         -1.4626310759       -2.8602850350        1.4921365672
 C         -0.7073694833       -3.8108942644       -0.2400200098
 C         -1.8675173085       -4.3880087022       -0.9938358744
 C         -0.7001699981       -3.8159468264       -1.7378937891
 H         -0.0291538570       -4.4994325929       -2.2383466392
 H         -0.8260682398       -2.8773415474       -2.2532393540
 H         -2.0070889701       -5.4584490742       -0.9924506082
 H         -2.7900250093       -3.8256604065       -0.9849582130
 H         -0.0458386617       -4.5218666440        0.2465019405
