  62
        -98.94220629
 C         -2.5317961769       -0.5308836232       -0.5060268734
 C         -1.5104371400        0.2959417705       -1.0340405940
 C         -1.7015508164        1.7433413504       -0.8687756422
 C         -2.8151778176        2.2006116874       -0.2695989106
 C         -3.1029922436        3.6438204972        0.0222659686
 C         -2.5939298573        4.0403140221        1.4154319847
 C         -1.1522668616        3.6150084444        1.6984485055
 H         -0.8966592011        3.9797427204        2.6959895209
 H         -1.0946579307        2.5240628406        1.7383524136
 C         -0.1212563019        4.1348060304        0.6869628826
 H         -0.5390765447        4.9747141502        0.1297878733
 H          0.7470623239        4.5055354345        1.2355638556
 C          0.3919090729        3.0766716624       -0.2917345736
 H          0.7186828357        2.1953862713        0.2686295791
 H          1.2705953793        3.4826798726       -0.8010156350
 C         -0.6074472496        2.6419027773       -1.3720214503
 H         -1.0261778999        3.5242012613       -1.8601580482
 H         -0.0607409822        2.0619958331       -2.1206378938
 H         -2.6801539369        5.1236076469        1.5184484038
 H         -3.2383681751        3.5754369867        2.1652217388
 H         -2.6323709368        4.2645015972       -0.7375542051
 H         -4.1832644871        3.7940333271       -0.0151091367
 O         -3.7963801072        1.3802010029        0.1858610824
 C         -3.6630664782        0.0048879475        0.1168215894
 O         -4.6100268843       -0.6276032865        0.6250426248
 H          0.2976989169       -2.2592964206       -0.8928443841
 C          0.0345126053       -2.3113034463        0.1514355341
 C         -1.2997120824       -2.3120885314        0.5291502190
 C         -1.6081575094       -2.3762522645        1.8851332012
 C         -0.6069614399       -2.4044941252        2.8389341730
 C          0.7219163628       -2.3280853374        2.4597133646
 C          1.0355348573       -2.2712848800        1.1098564862
 N          2.3850046580       -2.0836507834        0.7364122777
 S          2.9734436075       -0.5543216806        1.1880596055
 O          4.0260611272       -0.7579527333        2.1578442866
 O          1.8798176600        0.2788561932        1.6297570871
 C          3.6738515469        0.0927240609       -0.3203231706
 C          2.8197292914        0.3995272544       -1.3631696216
 C          3.3587418569        0.9098787875       -2.5341676572
 C          4.7278833179        1.1009720645       -2.6441500197
 C          5.5697733735        0.7836785577       -1.5890465871
 C          5.0401566161        0.2742047597       -0.4140803543
 H          5.6519611037        0.0146675320        0.4343802333
 H          6.6339412267        0.9318266577       -1.6773065530
 H          5.1391410747        1.4995677627       -3.5581545503
 H          2.7015877169        1.1534228507       -3.3538909925
 H          1.7556926086        0.2439315774       -1.2559853229
 H          2.5145381999       -2.2070759776       -0.2595451365
 H          1.5176707173       -2.2761584890        3.1869035105
 H         -0.8639072404       -2.4513759531        3.8868328291
 H         -2.6470946321       -2.3634071316        2.1855663258
 C         -2.3957776195       -2.0483229900       -0.4741506664
 H         -3.3411563819       -2.4331547838       -0.0715224498
 C         -2.1595552162       -2.6538136389       -1.8404132733
 C         -2.2980629712       -4.1360315733       -2.0125522237
 C         -3.3215230325       -3.2140645785       -2.6020417482
 H         -3.3441517518       -3.0848202902       -3.6736619395
 H         -4.2951449536       -3.1652351490       -2.1365827942
 H         -2.5765231626       -4.7133875717       -1.1438266961
 H         -1.6187767805       -4.6444524133       -2.6793929087
 H         -1.3960022005       -2.1457968489       -2.4145368988
 O         -0.4829986649       -0.1336114339       -1.6221436381
