  62
        -98.93746941
 C          2.2752197010       -0.5732512552        0.2119127110
 C          3.5432844948       -1.0534023582        0.6297494045
 C          4.6972404404       -0.6009774401       -0.1544693439
 C          4.5027814548        0.1700035841       -1.2391571026
 C          5.5742670756        0.6998588368       -2.1529272523
 C          6.2332264062        1.9931928799       -1.6538188158
 C          7.1730796465        1.8257980808       -0.4591014293
 H          7.8975328436        1.0401360912       -0.6755233711
 H          7.7272908568        2.7606178717       -0.3544858286
 C          6.4635678616        1.5226288165        0.8681258217
 H          5.4040970793        1.7757138315        0.7809161896
 H          6.8780896259        2.1555359795        1.6560759047
 C          6.5900854280        0.0731793493        1.3379867452
 H          6.0214904115       -0.0375868450        2.2651334157
 H          7.6363883869       -0.1509738240        1.5566729493
 C          6.0669595253       -0.9631425259        0.3345569834
 H          6.7576721895       -1.0588673128       -0.5027314546
 H          5.9941707221       -1.9276089937        0.8429155805
 H          6.8078244686        2.4077043640       -2.4853177571
 H          5.4482602102        2.7103879953       -1.4025001176
 H          6.3372995816       -0.0639412542       -2.3050412883
 H          5.0914216096        0.9062869931       -3.1104415447
 O          3.2648972797        0.5485542038       -1.6517966411
 C          2.1226552437        0.2100615612       -0.9332394782
 O          1.0723687752        0.6569387010       -1.4295825279
 O          3.7019993080       -1.8281278477        1.6103793636
 C          1.0685304674       -0.9816640913        1.0366088254
 C         -0.0621765217       -1.4330294106        0.1486078489
 C          0.0960148619       -2.5963509941       -0.6007101009
 C         -0.9148876005       -3.0474009053       -1.4265573106
 C         -2.1117853042       -2.3578613442       -1.5101777384
 C         -2.2757122153       -1.1908238421       -0.7740253650
 C         -1.2546009223       -0.7356759370        0.0482470547
 H         -1.4016001114        0.1829543474        0.5910870132
 N         -3.4649539457       -0.4509401293       -0.8622191332
 S         -4.0133744163        0.3744735087        0.5010055701
 O         -3.3614153548        1.6572375353        0.5793711382
 O         -3.9009927352       -0.4697831462        1.6701282963
 C         -5.7284480465        0.6012471572        0.0661621915
 C         -6.0628876357        1.6360418186       -0.7871598043
 C         -7.3891419138        1.7996755561       -1.1539729954
 C         -8.3535652312        0.9307951203       -0.6648879478
 C         -8.0031951100       -0.1018369452        0.1918266888
 C         -6.6781714037       -0.2721123110        0.5615814130
 H         -6.3601039704       -1.0550178407        1.2311097678
 H         -8.7556437176       -0.7733760674        0.5727488130
 H         -9.3851720498        1.0614398365       -0.9511723518
 H         -7.6653655760        2.6028011511       -1.8180061107
 H         -5.2801379451        2.2905514100       -1.1341233211
 H         -4.2094083397       -0.9465469899       -1.3324790168
 H         -2.9052979834       -2.7117020017       -2.1508616906
 H         -0.7754750556       -3.9491287677       -2.0039120263
 H          1.0296755374       -3.1383298025       -0.5305278179
 H          1.4145588011       -1.8569369161        1.6128821038
 C          0.6358230356        0.0623119967        2.0554815186
 C          1.6361492577        0.9597984841        2.7183202269
 C          0.6412666194        1.5296996096        1.7543871052
 H         -0.1707138216        2.1313883811        2.1374967723
 H          0.9827189889        1.8392415426        0.7786386964
 H          1.5177286973        1.1736011127        3.7698438526
 H          2.6656117566        0.8798973533        2.4004462574
 H         -0.1774570903       -0.2975978462        2.6803091612
