  62
        -98.94315956
 C          1.1441135498        1.2708761903       -0.0900204109
 C          1.9213636103        0.7343413714        0.9701914893
 C          2.8146051405       -0.3795489586        0.6292481500
 C          2.8184384303       -0.8531744297       -0.6294411296
 C          3.7214634905       -1.9397235398       -1.1355669490
 C          5.0248007701       -1.3572608199       -1.7011671599
 C          5.7056425701       -0.3482170689       -0.7762582209
 H          6.6271933198       -0.0282071790       -1.2674550515
 H          5.0697073098        0.5350227310       -0.6816352915
 C          6.0333758607       -0.8880444976        0.6229466594
 H          7.0491039307       -0.5850439171        0.8856722389
 H          6.0141467210       -1.9784529276        0.6131189304
 C          5.1138350809       -0.3743252169        1.7325379393
 H          5.5615291412       -0.6390250660        2.6940924494
 H          5.0585582605        0.7161985330        1.6872677884
 C          3.6848830210       -0.9319549074        1.7228359802
 H          3.7228062513       -2.0223039674        1.6772701611
 H          3.2075731912       -0.6397623767        2.6624854701
 H          4.7990101997       -0.8562559308       -2.6454693602
 H          5.7095488003       -2.1812080999       -1.9101907594
 H          3.9434767109       -2.6311682991       -0.3250971584
 H          3.2047438504       -2.4783417406       -1.9316180883
 O          2.0213580498       -0.3537737907       -1.6048785498
 C          1.1771147896        0.7239886992       -1.3729855705
 O          0.5310034492        1.0708717082       -2.3805617506
 H         -1.3940307305        1.0254164785       -1.2994607999
 C         -1.8469338403        1.2690227592       -0.3496208300
 C         -1.1325058702        2.0285856802        0.5674783791
 C         -1.7285128899        2.3298097910        1.7857267290
 C         -3.0067431597        1.8824768209        2.0763868798
 C         -3.7133214398        1.1220219399        1.1614047107
 C         -3.1228257601        0.8150822390       -0.0571603792
 N         -3.8145482101       -0.0061593820       -0.9811621883
 S         -3.9453361294       -1.5994175616       -0.4731173969
 O         -4.2616372996       -2.3710442027       -1.6529287562
 O         -4.9003024691       -1.6607886709        0.6036794334
 C         -2.3187489091       -2.0140407406        0.1319459429
 C         -1.3722398793       -2.4644849310       -0.7659072070
 C         -0.0894849991       -2.7248502603       -0.3130084471
 C          0.2273113913       -2.5136608690        1.0197657526
 C         -0.7312590986       -2.0501165486        1.9067252625
 C         -2.0188632688       -1.7988946493        1.4621786627
 H         -2.7940076887       -1.4470306290        2.1229229226
 H         -0.4754899183       -1.8777409676        2.9396656123
 H          1.2283951014       -2.7076127784        1.3698601925
 H          0.6603126208       -3.0822818706       -1.0005336671
 H         -1.6554813095       -2.6154471120       -1.7956327268
 H         -3.3841973504        0.0059425374       -1.8965863085
 H         -4.6990767696        0.7431778398        1.3775909313
 H         -3.4557795495        2.1238670716        3.0276561197
 H         -1.1767814099        2.9042653918        2.5151445184
 C          0.2720774595        2.4691905603        0.2488172183
 H          0.7086811597        2.8743338713        1.1748954678
 C          0.3361605789        3.5678202594       -0.8050361026
 C         -0.8421661315        4.0230274384       -1.6087287427
 C         -0.2920866714        4.9019503395       -0.5285232336
 H          0.2437191882        5.7968861494       -0.8062533145
 H         -0.8715104512        4.9963481901        0.3776151265
 H         -1.7962270013        3.5484411583       -1.4411418220
 H         -0.6684001719        4.2925133676       -2.6395828730
 H          1.2924517487        3.5814424793       -1.3182372329
 O          1.8786237605        1.1809745424        2.1464296589
