  62
        -98.94103478
 C         -2.5693980686       -0.2071133661        0.4996660324
 C         -2.2190603440        0.3375545392       -0.7608546261
 C         -2.0368093395        1.7965157425       -0.8021826951
 C         -2.2109695344        2.5198189943        0.3172371661
 C         -2.0704866058        4.0115242375        0.4114562510
 C         -0.6556135521        4.4313392718        0.8292715100
 C          0.4589503617        3.7723395260        0.0163956073
 H          1.4034037340        4.2031092700        0.3579777413
 H          0.4984700335        2.7052833130        0.2477237268
 C          0.3377601232        3.9518201678       -1.5031390246
 H          1.3253724537        4.1923141510       -1.9020494592
 H         -0.3181266750        4.7940092935       -1.7290632521
 C         -0.1520363311        2.7064375514       -2.2456447940
 H          0.4025499930        1.8340690270       -1.8892384660
 H          0.0686331943        2.8321266300       -3.3092562153
 C         -1.6510775729        2.4036536730       -2.1209945293
 H         -2.2305448983        3.3085338858       -2.3179024785
 H         -1.9071075864        1.6580482209       -2.8794848221
 H         -0.5113216825        4.1676954892        1.8798939334
 H         -0.5813661312        5.5171770612        0.7379059974
 H         -2.7796809175        4.3721514693        1.1592965602
 H         -2.3204075906        4.4512115113       -0.5524342367
 O         -2.5299123306        1.9612329932        1.5145582020
 C         -2.6740636051        0.5895092369        1.6406936679
 O         -2.9022952274        0.2054883435        2.8076685249
 O         -2.0780786307       -0.3462815257       -1.8076378219
 C         -2.7232683503       -1.7054214906        0.7029140736
 C         -1.5892189699       -2.4284106848        0.0156005734
 C         -1.7495295530       -3.5441820545       -0.7934875450
 C         -0.6471219042       -4.1448770557       -1.3793036553
 C          0.6240082815       -3.6369788631       -1.1942532436
 C          0.7931060129       -2.5092043403       -0.3951389863
 C         -0.3034858738       -1.9445780785        0.2297548826
 H         -0.1633573327       -1.0877785394        0.8742999885
 N          2.0625819442       -1.9223101789       -0.2591113558
 S          2.3199045381       -0.5740660590        0.7001452477
 O          2.1782638592       -0.9042737680        2.1043647200
 O          1.5122966166        0.5120975838        0.2098032233
 C          4.0355421771       -0.2694966549        0.3257722942
 C          4.3458250396        0.4973065890       -0.7809819409
 C          5.6780695624        0.7124144262       -1.0960478356
 C          6.6729871039        0.1585354965       -0.3041674325
 C          6.3468561179       -0.6066778023        0.8054294173
 C          5.0160874286       -0.8251379086        1.1256378378
 H          4.7158529631       -1.4017364231        1.9858273505
 H          7.1224707960       -1.0321085384        1.4215842535
 H          7.7091082771        0.3273761958       -0.5514129995
 H          5.9344041228        1.3100453544       -1.9558748970
 H          3.5376925332        0.9126104001       -1.3608054456
 H          2.8348500740       -2.5713559289       -0.2642808519
 H          1.4774720614       -4.0925407751       -1.6715160894
 H         -0.7846139977       -5.0157403739       -2.0023612797
 H         -2.7353737925       -3.9361975566       -0.9819804194
 H         -2.6001258887       -1.8556111694        1.7898102967
 C         -4.0981353478       -2.2503363215        0.3423764486
 C         -5.2974288065       -1.3533001563        0.2788253668
 C         -4.7460707537       -1.9566560219       -0.9761139778
 H         -5.3112807531       -2.7420832814       -1.4561721922
 H         -4.2066992474       -1.3208965912       -1.6598719553
 H         -6.2345339542       -1.7262311766        0.6645391380
 H         -5.1432956380       -0.2977825532        0.4519712619
 H         -4.2663080139       -3.2381474740        0.7603795487
