  62
        -98.94626013
 C         -2.3922767632       -0.5089899499       -0.0126931272
 C         -1.4000066868       -0.7167449987        0.9728634906
 C         -0.7242060436       -2.0195812020        0.9493693730
 C         -1.0721808009       -2.9201055072        0.0125769217
 C         -0.3806451759       -4.2313747940       -0.2282079425
 C          0.9286976411       -3.9832999026       -1.0062643931
 C          2.2002825179       -4.3312399333       -0.2314867972
 H          2.3161054081       -5.4173485677       -0.2059711366
 H          3.0413287585       -3.9200651109       -0.7944826257
 C          2.2652420545       -3.8153043710        1.2093898983
 H          1.6918807098       -4.4769438528        1.8608881002
 H          3.3073767836       -3.8889945570        1.5272546056
 C          1.7849620072       -2.3739579555        1.4233761358
 H          2.4493361935       -1.8942426594        2.1456736600
 H          1.8581769025       -1.8036980388        0.4961916563
 C          0.3502278087       -2.2567112619        1.9736229925
 H          0.1072709469       -3.1453242289        2.5627463276
 H          0.3008245670       -1.3918607008        2.6413181547
 H          0.9609784632       -2.9315414351       -1.3023326039
 H          0.9200809370       -4.5662971656       -1.9291608947
 H         -0.1769111971       -4.7239349291        0.7200526404
 H         -1.0564347504       -4.8575289230       -0.8114593886
 O         -2.0558793248       -2.6988408084       -0.8979869571
 C         -2.7165708652       -1.4822865788       -0.9544234434
 O         -3.5608582190       -1.3929776807       -1.8708630341
 H         -0.8615181100        0.6703862556       -1.6335358085
 C         -0.8985659746        1.6157691899       -1.1118410053
 C         -1.9776077003        1.9051945478       -0.2859369159
 C         -2.0071288687        3.1374808586        0.3546357071
 C         -0.9647549875        4.0350784946        0.1960313547
 C          0.1357840053        3.7158066352       -0.5783572274
 C          0.1681398927        2.4903094135       -1.2339183066
 N          1.2710896177        2.1032393109       -2.0231059453
 S          2.1153799862        0.7274462118       -1.5707403263
 O          3.1921232531        0.6205839659       -2.5323606055
 O          1.2233152536       -0.4001134842       -1.4905943501
 C          2.8007480097        1.1224095436        0.0287264763
 C          4.1392962879        1.4576548101        0.1052650007
 C          4.6739186299        1.8168432006        1.3315362986
 C          3.8616571820        1.8439347483        2.4554243001
 C          2.5198337531        1.5103794704        2.3597286050
 C          1.9774933570        1.1458829552        1.1365049455
 H          0.9367704834        0.8759359166        1.0496685245
 H          1.8795836980        1.5282208733        3.2272253467
 H          4.2754797072        2.1251065278        3.4110228793
 H          5.7180279685        2.0748684148        1.4064638241
 H          4.7308907834        1.4196176398       -0.7952046803
 H          1.9313735696        2.8498182019       -2.1926878573
 H          0.9625230883        4.4032720794       -0.6759959922
 H         -1.0004473941        4.9881591060        0.7011895644
 H         -2.8428210523        3.3915971749        0.9860182507
 C         -3.0515289892        0.8539364926       -0.1287608519
 H         -3.6524593037        0.8277696863       -1.0498821409
 C         -3.9694763735        1.1052630261        1.0497226876
 C         -5.1934942918        1.9549581134        0.8899393466
 C         -5.3269457518        0.4716046060        1.0542449504
 H         -5.7133669234        0.0856690410        1.9855062801
 H         -5.5981084172       -0.1196126653        0.1913362015
 H         -5.4934536927        2.5874423060        1.7118358222
 H         -5.3887018168        2.3740309288       -0.0856618230
 H         -3.4333230756        1.1468297270        1.9907484865
 O         -1.0821759384        0.1567427108        1.8240528964
