  62
        -98.93752664
 C          1.8243631717        0.9050088306        0.2655992330
 C          2.3218238579       -0.4099236568        0.1109162182
 C          3.7669676365       -0.5891583335        0.3401195178
 C          4.5184597814        0.4694590510        0.6877333287
 C          5.9925094620        0.5109495942        1.0051730559
 C          6.9358458259       -0.2906723901        0.0977608710
 C          6.5003648411       -0.3844938198       -1.3718424492
 H          7.3375869535       -0.0940744666       -2.0092702646
 H          5.6848762789        0.3140031756       -1.5668845544
 C          6.0698413755       -1.7961670749       -1.7776375044
 H          6.7751235586       -2.5134478807       -1.3521634770
 H          6.1315845890       -1.8836033745       -2.8651134710
 C          4.6501597469       -2.1913393268       -1.3724489614
 H          4.5130756113       -3.2484908354       -1.6130881918
 H          3.9244372595       -1.6321067245       -1.9693945759
 C          4.2989869721       -1.9740885571        0.1085311305
 H          5.1480096653       -2.1936846251        0.7513586206
 H          3.4826340596       -2.6558324922        0.3630685456
 H          7.0568022869       -1.2971144648        0.4959513695
 H          7.9138376601        0.1898830108        0.1573333507
 H          6.2606031969        1.5694905957        0.9673362534
 H          6.1268200657        0.1817953023        2.0396609204
 O          3.9914065738        1.7178309374        0.8393316976
 C          2.6467925136        1.9692746115        0.6307457588
 O          2.3108625939        3.1581131909        0.8050994613
 H         -1.7355333309       -0.5343686675       -0.5794673865
 C         -1.5149773932       -0.4746059456        0.4729198568
 C         -0.4915550727        0.3354539859        0.9378081597
 C         -0.2306711932        0.3646338419        2.3063222883
 C         -0.9596488334       -0.4145386513        3.1821413272
 C         -1.9742501476       -1.2315132162        2.7141318145
 C         -2.2476398624       -1.2627607580        1.3523232610
 N         -3.2648978759       -2.0862480538        0.8567455125
 S         -4.1264276247       -1.7024468570       -0.5126941411
 O         -5.3490227155       -2.4683504328       -0.3879122762
 O         -3.3496315336       -1.9578098194       -1.6996496701
 C         -4.4983860554        0.0403018909       -0.3995330073
 C         -4.8885944111        0.5766027202        0.8115847267
 C         -5.1972205987        1.9256793868        0.8783894965
 C         -5.1193551946        2.7115596378       -0.2611523935
 C         -4.7349478717        2.1569909766       -1.4716440026
 C         -4.4210484200        0.8091453384       -1.5425159716
 H         -4.1114589900        0.3376071948       -2.4612420018
 H         -4.6750516989        2.7678108156       -2.3581715562
 H         -5.3594495281        3.7616593289       -0.2057271450
 H         -5.4966407580        2.3596855311        1.8187583844
 H         -4.9464874343       -0.0535215524        1.6837522611
 H         -3.8196882819       -2.5670932985        1.5479129748
 H         -2.5404426286       -1.8490161076        3.3945817718
 H         -0.7394533989       -0.3863570403        4.2386443626
 H          0.5644338803        1.0016914243        2.6698852494
 C          0.3522777086        1.1946599398        0.0295221165
 H          0.2014356162        2.2455256445        0.3168132236
 C          0.0239400572        1.0419602679       -1.4403007589
 C         -1.0926907259        1.8333812247       -2.0488779349
 C          0.3304398077        2.1778866828       -2.3678821178
 H          0.7095540347        1.9520928448       -3.3533928449
 H          0.7534000841        3.0712467678       -1.9315221306
 H         -1.6453234491        2.4978354919       -1.4020885353
 H         -1.6899275612        1.3666880671       -2.8172251523
 H          0.1969653950        0.0362203988       -1.8072392079
 O          1.5985111974       -1.3933557919       -0.1949919358
