  62
        -98.92754914
 C          1.7987882535        0.5483987499        0.1623025849
 C          2.3643400743       -0.6732133387       -0.3007982905
 C          3.7969723570       -0.6880505250       -0.6388792211
 C          4.5143201226        0.4408093916       -0.4974608101
 C          5.9670463209        0.7519973881       -0.7899663659
 C          6.9611212233       -0.3700055122       -1.0760588768
 C          7.2795002221       -1.2605229941        0.1249321759
 H          7.9026879692       -2.0891188858       -0.2182652341
 H          7.8651885876       -0.6789394071        0.8415108182
 C          6.0705258085       -1.8221112333        0.8690616576
 H          5.4840006918       -1.0016172661        1.2876542082
 H          6.4416101663       -2.4133988624        1.7107206633
 C          5.1512304308       -2.7184790112        0.0420349999
 H          4.4248361134       -3.1654299081        0.7261609323
 H          5.7322004478       -3.5280854977       -0.4040628443
 C          4.3623618358       -2.0102196227       -1.0721355835
 H          4.9653974907       -1.8935339586       -1.9694412240
 H          3.5060506052       -2.6391993874       -1.3314851324
 H          6.6212429238       -0.9674065912       -1.9169659818
 H          7.8931320081        0.1105655313       -1.3858933848
 H          5.9551411156        1.4325046066       -1.6485965408
 H          6.3246854729        1.3399976905        0.0615507403
 O          3.9349903652        1.5941207138       -0.0626722867
 C          2.5924067925        1.6909827653        0.2786398061
 O          2.2794672826        2.8399874948        0.6446019469
 O          1.6872290360       -1.7280265319       -0.4359382464
 C          0.3257888522        0.4729713502        0.5147115158
 C         -0.6263342047        1.2782491378       -0.3423765253
 C         -0.2700205247        2.4089209729       -1.0637001628
 C         -1.2190080460        3.0989879583       -1.7997745264
 C         -2.5382847583        2.6890566135       -1.8205638896
 C         -2.9081677059        1.5539929884       -1.1066452764
 C         -1.9499496847        0.8517195783       -0.3937957602
 H         -2.2424034338       -0.0388584652        0.1404580830
 N         -4.2312221190        1.0951048651       -1.1263730055
 S         -4.9129018057        0.3624367561        0.2130643498
 O         -6.3389491853        0.4975115449        0.0087407372
 O         -4.3914252760        0.9032510450        1.4458515483
 C         -4.4636907725       -1.3519420503        0.0472140491
 C         -3.8707865596       -2.0108310369        1.1057248525
 C         -3.5367802170       -3.3482461148        0.9621832024
 C         -3.8036564496       -4.0006502922       -0.2314726974
 C         -4.4048902153       -3.3263996678       -1.2837394433
 C         -4.7401888911       -1.9892321803       -1.1462126656
 H         -5.2098343105       -1.4329690162       -1.9401045884
 H         -4.6105185409       -3.8387551564       -2.2097721134
 H         -3.5397803401       -5.0406428391       -0.3413223377
 H         -3.0675564074       -3.8731707890        1.7789305599
 H         -3.6764512461       -1.4642081468        2.0155648214
 H         -4.8851871612        1.6895334745       -1.6135750883
 H         -3.2763113544        3.2383122774       -2.3850246745
 H         -0.9238495628        3.9770395439       -2.3544916889
 H          0.7458803936        2.7653937603       -1.0367224292
 H          0.0857374361       -0.5856099267        0.3184282744
 C         -0.0438636594        0.6999584256        1.9817595925
 C          0.9573017331        0.6256357512        3.0922311563
 C          0.3044040709        1.9328771537        2.7559387465
 H         -0.4383523176        2.3275419801        3.4343844530
 H          0.9021176560        2.6837451913        2.2665773312
 H          0.6805807978        0.1208344879        4.0060512484
 H          1.9962504539        0.5034492874        2.8204751149
 H         -1.0233120880        0.2843808530        2.2022924762
