  62
        -98.94295655
 C         -2.4955591758       -0.8663432595        0.4798018903
 C         -2.5531924681        0.3368133923       -0.2638417093
 C         -3.7129973703        1.1953242377        0.0086834275
 C         -4.6173895840        0.8265758801        0.9340587974
 C         -5.8394543630        1.6059096025        1.3383831889
 C         -7.0510204637        1.3883763023        0.4215411292
 C         -6.9512480508        2.0448708252       -0.9559597605
 H         -7.9454244718        1.9991447232       -1.4050334528
 H         -6.6960413650        3.0983547313       -0.8373692466
 C         -5.9493642461        1.3741077402       -1.9061430695
 H         -5.7088006735        0.3748014373       -1.5359423197
 H         -6.4082047346        1.2486639185       -2.8895157857
 C         -4.6492791699        2.1523866775       -2.1088073478
 H         -4.8643289230        3.1029827157       -2.6019328873
 H         -4.0005401352        1.5701661030       -2.7681484656
 C         -3.8758537932        2.4372429515       -0.8146767881
 H         -2.8767599491        2.7900156419       -1.0820170538
 H         -4.3791548399        3.2134255906       -0.2386826511
 H         -7.2108790699        0.3141987059        0.3027334528
 H         -7.9242603569        1.7992886356        0.9334663767
 H         -6.1038523902        1.2691111701        2.3430978165
 H         -5.5993481650        2.6686641451        1.3801265417
 O         -4.5092414475       -0.3270640165        1.6467058402
 C         -3.4610172339       -1.2056006615        1.4271778006
 O         -3.4940295008       -2.2340482959        2.1337910594
 H          0.9188049008       -1.6995066152       -1.3142178798
 C          1.0237487506       -1.1837640950       -0.3724240981
 C         -0.0324380065       -1.1556683083        0.5233404248
 C          0.1426452224       -0.4910046820        1.7347079182
 C          1.3341934022        0.1424492468        2.0280303023
 C          2.3801183511        0.1292309395        1.1210565371
 C          2.2221912819       -0.5408676054       -0.0831408955
 N          3.2722131415       -0.5518126767       -1.0134017759
 S          4.8361514189       -0.8565628787       -0.4964832386
 O          5.5257537019       -1.3564683185       -1.6658621090
 O          4.8528473800       -1.7080112928        0.6702626011
 C          5.4812244550        0.7524927452       -0.0898111616
 C          6.0491082382        0.9729840726        1.1496053680
 C          6.5602791611        2.2285916777        1.4392413192
 C          6.4954824897        3.2359021959        0.4889001348
 C          5.9236638974        2.9976784206       -0.7521059205
 C          5.4123733341        1.7443811157       -1.0483578046
 H          4.9633843881        1.5195667258       -2.0014354424
 H          5.8743635820        3.7838241605       -1.4882988967
 H          6.8930610945        4.2124082338        0.7164107430
 H          7.0055753508        2.4155694278        2.4032524455
 H          6.0733712689        0.1614748923        1.8595840911
 H          3.0625518393       -1.0416485700       -1.8706026386
 H          3.3105316354        0.6261559710        1.3418003720
 H          1.4509733438        0.6561219912        2.9703707759
 H         -0.6751375147       -0.4771452514        2.4429747460
 C         -1.3516930756       -1.8388325943        0.2558803004
 H         -1.4774023975       -2.6347732788        1.0045770114
 C         -1.4581214702       -2.4505555722       -1.1256437730
 C         -0.8958173871       -3.8134402119       -1.3939687240
 C         -2.3797439813       -3.6133470309       -1.3311978577
 H         -2.9473539247       -3.6666115836       -2.2481503724
 H         -2.9119739117       -3.9825561233       -0.4664714912
 H         -0.4181494128       -4.3279422314       -0.5736129364
 H         -0.4472590602       -4.0086336414       -2.3567381811
 H         -1.4073190069       -1.7090418968       -1.9149805353
 O         -1.6855618880        0.6783018309       -1.1085539945
