  62
        -98.93657873
 C          0.6358075578        1.8848775418        0.3221678353
 C          1.2319168378        0.7355602388        0.8922549685
 C          2.5153934986        0.2960519005        0.3157792956
 C          3.0272986675        0.9751486284       -0.7263924896
 C          4.3093361367        0.7207565016       -1.4779913079
 C          4.5992421323       -0.7396158866       -1.8590972590
 C          5.7640806456       -1.3507413005       -1.0785297096
 H          6.1802719846       -2.1758925266       -1.6607733230
 H          6.5479269811       -0.5972143370       -0.9771160586
 C          5.4040153007       -1.8953035234        0.3026135824
 H          6.3361273295       -2.1697878228        0.8020577849
 H          4.8158883311       -2.8078791053        0.1870542303
 C          4.6292589994       -0.9326354447        1.2052235925
 H          4.7876560604       -1.2454265092        2.2394321855
 H          5.0258511220        0.0779034573        1.1160422753
 C          3.1155055414       -0.9309376072        0.9451832784
 H          2.8394106638       -1.7983250294        0.3396447852
 H          2.5786448835       -1.0438540559        1.8918028114
 H          4.8553387912       -0.7624546578       -2.9195629204
 H          3.6998707066       -1.3398790223       -1.7311041471
 H          4.2358562866        1.3331314481       -2.3794770212
 H          5.1404940732        1.1243847482       -0.8947433296
 O          2.4086683018        2.0690397179       -1.2550336139
 C          1.2019340353        2.5425704937       -0.7689588959
 O          0.7598820150        3.5310228788       -1.3839820925
 H         -1.4865362619       -0.1177657846        0.2805892693
 C         -2.0130631676        0.6013326418       -0.3303485692
 C         -1.7584651900        1.9568935704       -0.1545502173
 C         -2.4348297950        2.8726434385       -0.9490209081
 C         -3.3396196228        2.4335187015       -1.9003319188
 C         -3.5999780630        1.0853916811       -2.0635400602
 C         -2.9307913971        0.1605829569       -1.2686804607
 N         -3.1572909706       -1.2169777930       -1.4112227295
 S         -3.2562915403       -2.1757751779       -0.0402989357
 O         -4.0228375070       -3.3287322687       -0.4678436730
 O         -3.7973229765       -1.4419235878        1.0800054162
 C         -1.5926305312       -2.7090222101        0.2936827647
 C         -0.8487331964       -3.2314328895       -0.7457671635
 C          0.4163415569       -3.7275374297       -0.4775727245
 C          0.9098771641       -3.6991384037        0.8183392775
 C          0.1532409316       -3.1646300803        1.8485717854
 C         -1.1118188994       -2.6651563067        1.5862912644
 H         -1.7285652982       -2.2335535828        2.3584279584
 H          0.5426012092       -3.1283702334        2.8529876305
 H          1.8900797224       -4.0974611981        1.0300585084
 H          1.0114684870       -4.1383461918       -1.2778499851
 H         -1.2692370217       -3.2435710979       -1.7377550458
 H         -3.8697075270       -1.4615319801       -2.0839829693
 H         -4.3117590515        0.7470706630       -2.8014383254
 H         -3.8546846792        3.1529498752       -2.5189555142
 H         -2.2418487615        3.9263267794       -0.8346521626
 C         -0.7106015848        2.3393478249        0.8615411532
 H         -0.8840667131        1.7333702516        1.7622230510
 C         -0.7216414221        3.8012388755        1.2481084105
 C         -1.8121781878        4.3146012844        2.1389053052
 C         -0.4147684162        4.1844664151        2.6635886770
 H          0.1557633959        5.0837361358        2.8410768080
 H         -0.2037420939        3.3885440075        3.3628402451
 H         -2.5510800019        3.6046402814        2.4797755102
 H         -2.2035749741        5.3042238089        1.9591128677
 H         -0.3519946707        4.4534958301        0.4665131766
 O          0.7140336609        0.0987476621        1.8492120607
