  62
        -98.93953520
 C         -1.5094352184       -1.0093464197        0.3619320588
 C         -2.8304794566       -1.0558515228        0.8694672695
 C         -3.9123416741       -0.6616533336       -0.0479108958
 C         -3.6042129009       -0.2551554347       -1.2935643517
 C         -4.4878174435        0.1676105034       -2.4485733014
 C         -5.9497251998        0.5421851235       -2.2178186058
 C         -6.1644887420        1.8088535552       -1.3907092914
 H         -5.8221900864        2.6678500951       -1.9735465694
 H         -7.2371112484        1.9275464722       -1.2221540325
 C         -5.4436750439        1.8484884836       -0.0453170931
 H         -4.3633578210        1.8509251843       -0.2070137820
 H         -5.6957508658        2.7952051921        0.4404312972
 C         -5.7997364484        0.7205926350        0.9216624752
 H         -6.8822733639        0.6807876448        1.0566343272
 H         -5.3505990231        0.9644457523        1.8881325290
 C         -5.3016410990       -0.6795942424        0.5211978885
 H         -5.2548188713       -1.2920996193        1.4261932921
 H         -5.9908609477       -1.1642877304       -0.1661138497
 H         -6.3846260765        0.7163062937       -3.2058511056
 H         -6.4886163730       -0.2925744758       -1.7795441578
 H         -3.9724395512        1.0097761343       -2.9214507175
 H         -4.4526624162       -0.6578961962       -3.1682899070
 O         -2.3144730017       -0.2182867907       -1.7371672370
 C         -1.2409033181       -0.5777672783       -0.9360106456
 O         -0.1372713397       -0.4815530203       -1.5038019018
 H          2.0263296048       -0.3113085196        0.4908982444
 C          1.5259251730        0.2931574158        1.2257682475
 C          0.3087634375       -0.1162321022        1.7459437425
 C         -0.3201549122        0.6899730899        2.6921869641
 C          0.2601574756        1.8730699624        3.1061155647
 C          1.4716859888        2.2832600256        2.5755008015
 C          2.1029432526        1.4914367662        1.6249856593
 N          3.3416808148        1.8654403547        1.0761246874
 S          3.5195306028        1.8371915716       -0.5970593514
 O          4.6464050636        2.7152919075       -0.8433824666
 O          2.2881407676        2.1927084479       -1.2612961077
 C          4.0134520561        0.1680134117       -0.9660641685
 C          3.1940421387       -0.6528369182       -1.7153008023
 C          3.6132095019       -1.9489033754       -1.9764950531
 C          4.8323124172       -2.3960041236       -1.4908321948
 C          5.6438156172       -1.5552364847       -0.7435436415
 C          5.2332139145       -0.2591501752       -0.4782289121
 H          5.8341430058        0.4298640324        0.0914369393
 H          6.5907006330       -1.9069085870       -0.3668234158
 H          5.1493166888       -3.4065730295       -1.6958869032
 H          2.9775057736       -2.6021271111       -2.5534827671
 H          2.2373699853       -0.2827306082       -2.0520607880
 H          3.7169143928        2.7248829172        1.4527391421
 H          1.9239399924        3.2110590366        2.8928881200
 H         -0.2354123530        2.4863548023        3.8438357176
 H         -1.2736834515        0.3756016156        3.0931897852
 C         -0.3728816378       -1.3869442712        1.2988699093
 H         -0.8617030419       -1.8297935631        2.1780455741
 C          0.5699431962       -2.4057417979        0.6960663866
 C          1.5563788005       -3.1058399909        1.5809003842
 C          0.3898581688       -3.8580116884        1.0163005797
 H          0.5699273572       -4.5822086352        0.2362628438
 H         -0.4157494959       -4.1275443674        1.6836031465
 H          2.5413422131       -3.3106825399        1.1900458362
 H          1.5408461386       -2.8621782843        2.6323850162
 H          0.8832340360       -2.1578780842       -0.3100423387
 O         -3.1003615353       -1.4236943771        2.0444681636
