  62
        -98.94085434
 C          1.8169041502        0.7283102507        0.5337180773
 C          2.2955530299       -0.0312821007       -0.5627045218
 C          3.4321070200       -0.9184299903       -0.2724060810
 C          3.9018573103       -1.0255202187        0.9826902890
 C          5.0397472405       -1.9001132281        1.4343435898
 C          6.4269948204       -1.2769313983        1.2265623585
 C          6.9015849400       -1.2135065502       -0.2258304417
 H          7.9641264500       -0.9632487201       -0.2047335123
 H          6.8091177199       -2.2004611207       -0.6802509904
 C          6.1674370097       -0.1768212513       -1.0877671028
 H          5.6482766499        0.5333879096       -0.4400394035
 H          6.8946488295        0.3942596280       -1.6691841737
 C          5.1634166194       -0.7710311626       -2.0757499717
 H          5.6911806492       -1.3791389335       -2.8136956811
 H          4.6754935493        0.0511559968       -2.6055779726
 C          4.0715721096       -1.6309049417       -1.4255248103
 H          3.2940975094       -1.8214267927       -2.1697243998
 H          4.4868266697       -2.5851809813       -1.1018015692
 H          6.4262809205       -0.2714653377        1.6539668273
 H          7.1414656906       -1.8779157476        1.7938395791
 H          4.8953682408       -2.0702948967        2.5036048500
 H          4.9901738503       -2.8606514287        0.9204533210
 O          3.3558800206       -0.3440970473        2.0256067383
 C          2.3175583906        0.5520358424        1.8259749074
 O          1.9188552008        1.1101181437        2.8684023868
 H         -0.6231675397       -0.4955438887        0.9968988096
 C         -1.0125289500       -0.0704675199        0.0791437992
 C         -0.4442312901        1.0977212195       -0.4162782625
 C         -0.9527320205        1.6340539580       -1.5910100830
 C         -1.9862253007        1.0010197571       -2.2604261119
 C         -2.5378839905       -0.1688581623       -1.7734763802
 C         -2.0420522301       -0.7091601408       -0.5931692697
 N         -2.6066271000       -1.8916817701       -0.0825538780
 S         -4.2769360899       -1.9839688201       -0.0213922974
 O         -4.5682788796       -2.8898353487        1.0678625838
 O         -4.7899845503       -2.3689278818       -1.3124811168
 C         -4.8178866399       -0.3303079596        0.3750208606
 C         -4.4034486595        0.2175052020        1.5730314698
 C         -4.7772283394        1.5149924023        1.8819924883
 C         -5.5552469097        2.2392532412        0.9914704376
 C         -5.9682290901        1.6731761496       -0.2043843716
 C         -5.5952765601        0.3762237492       -0.5195501600
 H         -5.8912201004       -0.1014918219       -1.4391918993
 H         -6.5748797203        2.2382505987       -0.8934540921
 H         -5.8407242797        3.2507762315        1.2334982663
 H         -4.4566778992        1.9562949935        2.8122081876
 H         -3.8036021193       -0.3738437172        2.2465685704
 H         -2.1912326997       -2.2042238790        0.7823670223
 H         -3.3314488106       -0.6819066630       -2.2921975493
 H         -2.3631282309        1.4221276759       -3.1798677823
 H         -0.5222741106        2.5329683074       -1.9997800543
 C          0.6771083901        1.7205379905        0.3790204964
 H          0.3053931904        1.8846568018        1.4041127763
 C          1.1083349599        3.0823523898       -0.1453855955
 C          2.4969877100        3.5945546502        0.0920085635
 C          2.0571680196        3.2370831884       -1.2942791460
 H          1.8837313794        4.0388395175       -1.9972299369
 H          2.4467327795        2.3386462378       -1.7453822049
 H          2.6237966100        4.6372125705        0.3421176621
 H          3.1932832101        2.9388711408        0.5951177641
 H          0.3105585799        3.8146685799       -0.0706202362
 O          1.8128450995        0.0162157878       -1.7222279118
