  62
        -98.93913310
 C         -1.5136275556       -0.8515721353       -0.0453424490
 C         -2.7780292835       -1.4799629009       -0.0078426499
 C         -3.9031458708       -0.6573388315        0.4707880649
 C         -3.6684736282        0.6113992335        0.8490423155
 C         -4.6760119765        1.6297545346        1.3065997525
 C         -5.1587184613        2.4849137530        0.1226183455
 C         -6.3456211084        1.9079616512       -0.6478619581
 H         -7.2439134205        1.9814311190       -0.0311600052
 H         -6.5000542817        2.5381042630       -1.5268664858
 C         -6.1859538502        0.4561676596       -1.1068507818
 H         -6.8864487756        0.2855399913       -1.9267666695
 H         -5.1808029773        0.3033078454       -1.5040860378
 C         -6.4682318074       -0.5635825485        0.0064565952
 H         -7.1841230960       -1.3047079149       -0.3552676723
 H         -6.9474691858       -0.0546345344        0.8426649254
 C         -5.2426947710       -1.3412412086        0.5088694370
 H         -5.4319807787       -1.6820409536        1.5325024916
 H         -5.1099969494       -2.2421149018       -0.0986858554
 H         -5.4459371499        3.4700578367        0.4956584315
 H         -4.3132295546        2.6254349427       -0.5554600708
 H         -5.5094566871        1.1497058926        1.8106770999
 H         -4.1610046649        2.2790777372        2.0175040075
 O         -2.4289933507        1.1733233596        0.8108332430
 C         -1.3225810659        0.4672126274        0.3678800015
 O         -0.2565423919        1.1069313483        0.3917198724
 H          2.3913051776       -1.1083182538       -0.7888732579
 C          2.0891915297       -1.3381203458        0.2180470374
 C          0.7698793608       -1.6463236455        0.5073549005
 C          0.4366607941       -1.9841626050        1.8170654439
 C          1.3950457943       -1.9881203076        2.8109997422
 C          2.7055028181       -1.6458093781        2.5248181302
 C          3.0518196462       -1.3231831677        1.2190340902
 N          4.3730895293       -0.9935049773        0.8927859589
 S          4.7216600115        0.0470996028       -0.3636259041
 O          4.5750302581       -0.6340344380       -1.6260421898
 O          6.0561013118        0.5223107984       -0.0633460756
 C          3.5629543098        1.3977168927       -0.2539541113
 C          3.4558858361        2.0824097703        0.9392390268
 C          2.5728648588        3.1453540465        1.0233630759
 C          1.8185811596        3.5065512291       -0.0811148996
 C          1.9418732201        2.8129604454       -1.2732608066
 C          2.8206087664        1.7466623591       -1.3624478706
 H          2.9405244294        1.1750756117       -2.2696944523
 H          1.3480942838        3.0921693371       -2.1294131431
 H          1.1240369156        4.3286070700       -0.0108943942
 H          2.4685843793        3.6846786326        1.9512518333
 H          4.0586487097        1.7825897420        1.7813912902
 H          4.9971491177       -0.8729886551        1.6761008168
 H          3.4529606197       -1.6348885241        3.3030546269
 H          1.1197492654       -2.2500749465        3.8216091341
 H         -0.5895383701       -2.2383854515        2.0455145534
 C         -0.3111069055       -1.6304777894       -0.5441570555
 H         -0.6654966972       -2.6610168384       -0.6954579386
 C          0.1553855433       -1.0718764107       -1.8722368337
 C          0.8650542049       -1.9506226791       -2.8570474263
 C         -0.5360642234       -1.4954002257       -3.1318645880
 H         -0.6990190700       -0.7589635249       -3.9044558006
 H         -1.3348095588       -2.2170798355       -3.0411782118
 H          1.6732629152       -1.5305748294       -3.4374701923
 H          1.0179406244       -2.9839486691       -2.5840734759
 H          0.4659623508       -0.0352431653       -1.7956165101
 O         -2.9620823322       -2.6776048262       -0.3595772121
