  62
        -98.94427998
 C          1.8345673622       -1.0925661094        0.1392390332
 C          2.3169705425        0.0440804243        0.8314181274
 C          3.7794176447        0.1926469584        0.8731782013
 C          4.5552564846       -0.7382874029        0.2884810651
 C          6.0528396017       -0.6800840447        0.2093207096
 C          6.5138286103        0.0283089133       -1.0723053549
 C          5.8168517703        1.3653452344       -1.3245317098
 H          6.2423286012        1.7865092053       -2.2379719725
 H          4.7566952801        1.1852606134       -1.5169005299
 C          5.9563255330        2.3799060870       -0.1810547052
 H          6.7839422877        2.0942817559        0.4692758667
 H          6.2001480032        3.3557690337       -0.6062438737
 C          4.6921275638        2.5646297284        0.6605813843
 H          3.8388097341        2.7589814768        0.0055589776
 H          4.8283605205        3.4481662118        1.2900657475
 C          4.3304870634        1.3956069848        1.5854482412
 H          5.1969982188        1.1234415400        2.1916982843
 H          3.5352877036        1.7362744635        2.2552962111
 H          7.5924241373        0.1841173546       -1.0115187501
 H          6.3125043605       -0.6281155342       -1.9219812182
 H          6.4375377520       -0.1589796762        1.0837879018
 H          6.4372344816       -1.7013948940        0.2077014876
 O          4.0540999612       -1.8270364467       -0.3490348532
 C          2.6869123530       -2.0260654907       -0.4502388534
 O          2.3602703549       -3.0514485563       -1.0812322966
 O          1.5698212579        0.8922880434        1.3855373142
 C          0.3385895791       -1.3336694581        0.0297670794
 C         -0.3216585518       -0.1395443772       -0.6134570671
 C          0.1738855564        0.3103008170       -1.8358499872
 C         -0.3714813472        1.4155835540       -2.4573083404
 C         -1.4323639041        2.0908407535       -1.8788888914
 C         -1.9401660014        1.6458849346       -0.6648705173
 C         -1.3931341208        0.5291533852       -0.0440405777
 H         -1.7951131696        0.2184095736        0.9054486842
 N         -3.0063804535        2.3198502540       -0.0564753920
 S         -4.1468135624        1.5071314659        0.8436065267
 O         -5.2990870604        2.3837039047        0.8331918267
 O         -3.6301003326        1.1700801815        2.1459579272
 C         -4.5145896932        0.0174152512       -0.0684977461
 C         -4.5615326169       -1.1871132875        0.6017022569
 C         -4.8612157110       -2.3405710827       -0.1055379437
 C         -5.1069959259       -2.2690374736       -1.4675336603
 C         -5.0619569115       -1.0500843919       -2.1269416622
 C         -4.7659958148        0.1060358529       -1.4235730590
 H         -4.7315667008        1.0662855391       -1.9113388284
 H         -5.2553674077       -0.9976925198       -3.1862360746
 H         -5.3361060495       -3.1679568905       -2.0178523354
 H         -4.8987871662       -3.2880515665        0.4079673895
 H         -4.3584778603       -1.1972644992        1.6601901715
 H         -3.4025714361        3.0791043298       -0.5892299662
 H         -1.8540243514        2.9625096235       -2.3557049567
 H          0.0300258205        1.7560986629       -3.3998639123
 H          1.0055118913       -0.2166460961       -2.2843680742
 H          0.2183532260       -2.1955732961       -0.6426240172
 C         -0.2263720696       -1.6951140586        1.3868047674
 C         -1.4362265384       -2.5718328228        1.4912092200
 C         -0.0884029591       -3.1072266148        1.8683797564
 H          0.1276811463       -3.2778758987        2.9124183238
 H          0.3901646317       -3.8110036503        1.2027974526
 H         -2.1443705012       -2.3724304705        2.2810986814
 H         -1.8830500401       -2.9185395967        0.5717927675
 H         -0.1030854861       -0.9036946718        2.1177698922
