  62
        -98.94413547
 C         -1.7009390790       -1.4626722910        0.2013050288
 C         -1.9919627097       -0.7021087005       -0.9572096506
 C         -2.8947270905        0.4453884987       -0.7688444698
 C         -3.3428792505        0.7456226276        0.4630101705
 C         -4.2335747112        1.9059925668        0.7977960814
 C         -3.4284463520        3.1667198872        1.1423528220
 C         -2.3479360425        3.5160938385        0.1190837720
 H         -1.8768689531        4.4451683387        0.4468609425
 H         -1.5744605019        2.7463644391        0.1328919014
 C         -2.8580094529        3.6798544691       -1.3186562478
 H         -2.4016010636        4.5716594397       -1.7533669673
 H         -3.9374303030        3.8358336083       -1.3177033375
 C         -2.5154250323        2.5097212599       -2.2426178186
 H         -2.7166974327        2.8194349804       -3.2718302383
 H         -1.4457553721        2.2921565006       -2.1748637189
 C         -3.2977408113        1.2129128092       -1.9974812992
 H         -4.3673314214        1.4328307184       -1.9743464088
 H         -3.1044564610        0.5465594398       -2.8434605797
 H         -2.9472597017        3.0191849569        2.1118666018
 H         -4.1250404726        4.0018271966        1.2350331727
 H         -4.8905528815        2.1042465668       -0.0472412483
 H         -4.8421877708        1.6296611558        1.6605786314
 O         -3.0004892897        0.0272130672        1.5618384200
 C         -2.1988316990       -1.0972564022        1.4578078492
 O         -2.0013832983       -1.6816283127        2.5396110788
 H          0.5323006205       -1.2815744583       -1.6304672515
 C          1.1618444709       -1.5696610284       -0.8014585618
 C          0.6281698017       -2.3388715494        0.2219496778
 C          1.4504041521       -2.6905906595        1.2855848874
 C          2.7722344619       -2.2794620186        1.3216835974
 C          3.2912025811       -1.4844762376        0.3151398778
 C          2.4713013806       -1.1202248875       -0.7447391318
 N          2.9532484798       -0.2167565066       -1.7153011714
 S          3.4733329889        1.2475700334       -1.0759515006
 O          3.0774381080        2.2607198837       -2.0293427699
 O          4.8876478990        1.1658651142       -0.8062908509
 C          2.5952545290        1.4370057118        0.4708606497
 C          1.2148410691        1.3793039709        0.4732503900
 C          0.5458060093        1.4396414496        1.6845129902
 C          1.2591424794        1.5755278894        2.8651880801
 C          2.6423935794        1.6542222004        2.8446457199
 C          3.3186115592        1.5744436516        1.6379847997
 H          4.3942163492        1.6065312424        1.5767612995
 H          3.1942614595        1.7635405202        3.7641395998
 H          0.7272335696        1.6130612685        3.8026757702
 H         -0.5299352406        1.3596419589        1.7083405203
 H          0.6765753090        1.2755831210       -0.4567859400
 H          2.2830313395       -0.0498303366       -2.4536847711
 H          4.3066168608       -1.1223161169        0.3419616078
 H          3.3996998922       -2.5643345386        2.1519576171
 H          1.0410528127       -3.2719594303        2.0983986972
 C         -0.8333883981       -2.7153676104        0.1956563879
 H         -1.0619997675       -3.2377731912        1.1337316976
 C         -1.1383153976       -3.6492585899       -0.9592646926
 C         -0.7546805166       -5.0925741497       -0.8441602736
 C         -2.1988158569       -4.6942688808       -0.7974109331
 H         -2.8280834269       -4.9246383007       -1.6440029231
 H         -2.7112633766       -4.7442001017        0.1524938870
 H         -0.2886731762       -5.4151218500        0.0745601261
 H         -0.3886737264       -5.5993342789       -1.7238505340
 H         -1.0487237682       -3.1806833193       -1.9302202524
 O         -1.5399654598       -0.9455182895       -2.1096926709
