  62
        -98.93620516
 C         -2.6017608115       -0.0009353018       -0.5673027856
 C         -2.2077942208       -0.5698581807        0.6701903317
 C         -1.6936345984       -1.9469924400        0.6170620187
 C         -1.5718270543       -2.5601160234       -0.5727680696
 C         -0.9067055879       -3.8867095158       -0.8038912649
 C          0.6244371523       -3.6987327011       -0.7627991532
 C          1.3163709870       -4.4257555326        0.3901744033
 H          1.3529900942       -5.4943943387        0.1661888568
 H          2.3439255430       -4.0586173069        0.4316305153
 C          0.6685470659       -4.2537812301        1.7676139107
 H         -0.1834710030       -4.9298349880        1.8584201122
 H          1.4036625681       -4.5773921184        2.5076276400
 C          0.2068839170       -2.8340117361        2.1213150662
 H          0.7626065536       -2.0870949763        1.5537150632
 H          0.4211174213       -2.6597999695        3.1781378805
 C         -1.3000406389       -2.5835023432        1.9209004447
 H         -1.8518224703       -3.5187924904        2.0531698565
 H         -1.6399163959       -1.8830969118        2.6893909155
 H          1.0596863414       -4.0470025951       -1.7014345295
 H          0.8382529276       -2.6284441401       -0.6969676195
 H         -1.2273755302       -4.6001370277       -0.0478660489
 H         -1.2211823043       -4.2467664365       -1.7838824388
 O         -1.9607589220       -1.9856251358       -1.7418265378
 C         -2.4550403448       -0.6925306758       -1.7702398050
 O         -2.7272513892       -0.2757739988       -2.9163617081
 H         -0.4072327542        1.3442180034       -1.1063237862
 C         -0.6271911921        2.0401713301       -0.3076553190
 C         -1.9500092514        2.2713666835        0.0512450627
 C         -2.2140648941        3.1781469559        1.0673086774
 C         -1.1702089854        3.8065174919        1.7261254870
 C          0.1454154922        3.5286985513        1.4055007580
 C          0.4181899033        2.6311051512        0.3780140692
 N          1.7402418034        2.3189590228        0.0127471487
 S          2.0516430502        0.7649216245       -0.5735840759
 O          1.7808279749        0.7461823546       -1.9909363593
 O          1.3751942761       -0.2326513046        0.2217028933
 C          3.8116382401        0.6704669009       -0.3026777476
 C          4.2904044453        0.0141039903        0.8152771742
 C          5.6586798662       -0.0281904067        1.0334293096
 C          6.5195721372        0.5864906364        0.1367581802
 C          6.0241634754        1.2412432870       -0.9813592744
 C          4.6574495607        1.2856788857       -1.2062455452
 H          4.2255517924        1.7728286354       -2.0649159370
 H          6.6965584757        1.7155302288       -1.6777912554
 H          7.5837033864        0.5527056548        0.3089270094
 H          6.0460465772       -0.5394176257        1.8998927164
 H          3.5829232052       -0.4541825740        1.4810154831
 H          2.4160451478        2.5960683804        0.7117067428
 H          0.9554832724        3.9938939986        1.9463182801
 H         -1.3859283410        4.5036846932        2.5216640778
 H         -3.2319577478        3.3673493476        1.3665019043
 C         -2.9980886688        1.4646336739       -0.6768492391
 H         -2.9112230725        1.6962734300       -1.7523410394
 C         -4.4276705441        1.7935467755       -0.2803451414
 C         -5.5057804434        0.7558714101       -0.3727522233
 C         -5.0671351073        1.2636963079        0.9661815084
 H         -5.7385142396        1.9133715097        1.5087427518
 H         -4.4733769941        0.6204504739        1.5949050838
 H         -5.2097066619       -0.2419574847       -0.6639329561
 H         -6.4736188255        1.0525181397       -0.7484497029
 H         -4.7056720821        2.7997197214       -0.5798302309
 O         -2.2732974641        0.0340194831        1.7722838932
