  62
        -98.93034198
 C          1.1141877446        1.4083443700        0.7761872500
 C          2.0851000899        1.2367119913       -0.2388125239
 C          3.1944626917        0.3186791758        0.0744923122
 C          3.2238755722       -0.3065561525        1.2633956100
 C          4.2708453925       -1.2504521710        1.8000447265
 C          4.8008467092       -2.3325009128        0.8489709998
 C          3.7843443646       -2.8561597893       -0.1766635829
 H          3.7806832812       -3.9477673474       -0.1456201283
 H          2.7753723792       -2.5267823697        0.0825488189
 C          4.1105919617       -2.4306666903       -1.6105883092
 H          5.1845277482       -2.5471540338       -1.7740466093
 H          3.5981350970       -3.1068931008       -2.2992545407
 C          3.6983343797       -1.0076961549       -1.9846829027
 H          2.6075389001       -0.9429675240       -2.0371974996
 H          4.0803815970       -0.7991419734       -2.9870418010
 C          4.1857745501        0.0952816312       -1.0306469888
 H          5.1783499634       -0.1258151760       -0.6457454135
 H          4.2275130274        1.0315894088       -1.5935805701
 H          5.6745522566       -1.9555140804        0.3187563626
 H          5.1441583439       -3.1593305451        1.4731717581
 H          5.1115639652       -0.6546020982        2.1676442387
 H          3.8061099087       -1.7242142977        2.6681593403
 O          2.2574739854       -0.1206501385        2.2073891776
 C          1.1719115668        0.7057469294        1.9767907763
 O          0.3365500757        0.7323132402        2.9059719384
 H         -0.5724901146       -0.1763615718        0.0033297626
 C         -0.9704077002        0.4396281096       -0.7875113617
 C         -0.7859419056        1.8191353795       -0.7292828324
 C         -1.2853405628        2.5719707631       -1.7840231639
 C         -1.9210682535        1.9560186714       -2.8514703142
 C         -2.1008640064        0.5872184527       -2.8946027956
 C         -1.6119704347       -0.1803718056       -1.8434097778
 N         -1.7528705330       -1.5756706484       -1.8259013146
 S         -1.9083776310       -2.3805939629       -0.3697302348
 O         -0.6384534823       -2.4493285746        0.3095066106
 O         -2.4954958339       -3.6532410934       -0.7337330083
 C         -3.0935668659       -1.4225157328        0.5590190386
 C         -2.7192642152       -0.7120759893        1.6807860830
 C         -3.6716041644        0.0561716412        2.3336350824
 C         -4.9728589813        0.0999984474        1.8594978966
 C         -5.3365032476       -0.6290918830        0.7370321669
 C         -4.3895673610       -1.3954739811        0.0791047710
 H         -4.6355791975       -1.9854080374       -0.7887479672
 H         -6.3507429156       -0.5989532663        0.3730094341
 H         -5.7064314165        0.7037308226        2.3699872899
 H         -3.3792492888        0.6192334738        3.2058651943
 H         -1.6995873108       -0.7526106068        2.0333300242
 H         -2.3431209631       -1.9615874142       -2.5472166580
 H         -2.5972362062        0.1160732705       -3.7286707309
 H         -2.2886457719        2.5632422758       -3.6648074872
 H         -1.1771093453        3.6405872678       -1.8094265285
 C         -0.0955779366        2.3008868921        0.5284247321
 H         -0.7902466249        2.0830600955        1.3586354629
 C          0.3379949698        3.7478988394        0.7109920923
 C          0.8201527199        4.6569578660       -0.3743954271
 C         -0.4668227201        4.9570941871        0.3368585215
 H         -0.4733858114        5.7823900288        1.0339007343
 H         -1.4049006695        4.8220043342       -0.1750673693
 H          1.6782671699        5.2782781346       -0.1620209686
 H          0.8075137114        4.2833176814       -1.3848147535
 H          0.8724535265        3.8278049504        1.6562150739
 O          2.0335717034        1.8155880015       -1.3527069108
