  62
        -98.93919093
 C         -1.4594887099       -0.6095349227       -0.6325756173
 C         -2.6980627192       -1.1258728434       -0.1772790219
 C         -3.6690255997       -0.1715445608        0.3893303565
 C         -3.3235370708        1.1267255153        0.4664760957
 C         -4.1479948356        2.2810630620        0.9707904848
 C         -5.2220264619        2.7257930530       -0.0361277929
 C         -5.9797393258        1.5871218473       -0.7144357986
 H         -5.2661510473        0.9329990339       -1.2186664575
 H         -6.6180813178        2.0266145332       -1.4854137400
 C         -6.8676330081        0.7549614985        0.2075572877
 H         -7.4003970083        0.0343506127       -0.4181732696
 H         -7.6120341070        1.4062893454        0.6711284949
 C         -6.1458423747       -0.0181467712        1.3128673746
 H         -6.8623297491       -0.7304246784        1.7326823145
 H         -5.8552900637        0.6417753190        2.1259423346
 C         -4.9466047125       -0.8359783577        0.8431222347
 H         -5.2572285338       -1.4852295794        0.0166276271
 H         -4.6532733934       -1.5183751503        1.6503436479
 H         -4.7287213589        3.3082485504       -0.8180264921
 H         -5.9271435765        3.3808748904        0.4782151850
 H         -3.4574086152        3.1115143880        1.1344816721
 H         -4.5928044775        2.0292005262        1.9291012453
 O         -2.1197371625        1.5816767036        0.0213078000
 C         -1.1606061084        0.7487487429       -0.5288064151
 O         -0.1305025469        1.3491396515       -0.8891210554
 O         -2.9963305714       -2.3490784331       -0.2526350813
 C         -0.4656829821       -1.6169322012       -1.1893770333
 C          0.4701040751       -2.0463952648       -0.0835256052
 C          0.2921550743       -3.2764929177        0.5401004694
 C          1.1221656342       -3.6658706885        1.5755805972
 C          2.1400658777       -2.8359123920        2.0071664879
 C          2.3255179009       -1.6009883959        1.3927767853
 C          1.4968533585       -1.2172259345        0.3479756729
 H          1.6238308801       -0.2483772105       -0.1038888323
 N          3.3708262729       -0.7650288945        1.8006199159
 S          3.2887883881        0.9036316398        1.6904362919
 O          4.2933365065        1.3561691450        2.6328584351
 O          1.9498361726        1.3929333293        1.9154923335
 C          3.8726742846        1.2402809185        0.0432520157
 C          3.0572736459        1.8392446496       -0.8944139099
 C          3.5635379835        2.0693967252       -2.1655378140
 C          4.8643418859        1.7035920151       -2.4725915010
 C          5.6719646473        1.1074623856       -1.5151069711
 C          5.1736409833        0.8732825572       -0.2447282028
 H          5.7682437453        0.4210880903        0.5313910941
 H          6.6839386093        0.8246181843       -1.7563954723
 H          5.2496039883        1.8843385377       -3.4638316558
 H          2.9304216116        2.5294658461       -2.9077490357
 H          2.0408951766        2.0938047454       -0.6352761989
 H          3.8712049180       -1.0701780931        2.6219382696
 H          2.7868950296       -3.1354296165        2.8178020823
 H          0.9725085736       -4.6217457641        2.0545183342
 H         -0.5179903441       -3.9152569346        0.2198314881
 H         -1.0712410027       -2.4913784293       -1.4651679180
 C          0.2819689417       -1.1441623148       -2.4183882029
 C          0.9705771578       -2.1605944957       -3.2777042045
 C         -0.2607791209       -1.4675146907       -3.7768186147
 H         -0.1599751580       -0.7304261032       -4.5591052801
 H         -1.1797670083       -2.0333737680       -3.8275164390
 H          1.9213828482       -1.9017867826       -3.7170900554
 H          0.8856128556       -3.1973483839       -2.9889543102
 H          0.7609632284       -0.1823559133       -2.2958276298
