  62
        -98.93980950
 C         -2.4775378831       -1.0372406833       -0.0752391174
 C         -3.7053975296       -1.0688453366        0.6287437297
 C         -4.8531644800       -0.4687868176       -0.0597598866
 C         -4.6945409440        0.0546092157       -1.2892349693
 C         -5.7738316165        0.6816790472       -2.1296057700
 C         -6.0386776541        2.1584245779       -1.8059384699
 C         -6.7630252668        2.4148170069       -0.4838478351
 H         -7.0749076519        3.4611352342       -0.4871898572
 H         -7.6667008379        1.8059952791       -0.4416453257
 C         -5.9089094461        2.1592116744        0.7658250357
 H         -4.8530525489        2.1301249389        0.4859580960
 H         -6.0300972831        2.9888987581        1.4660551385
 C         -6.2572431633        0.8758456985        1.5200714300
 H         -7.2706203444        0.9499519557        1.9208573919
 H         -5.5687159966        0.7765670868        2.3632603392
 C         -6.1582275343       -0.4007118935        0.6745766907
 H         -6.2071845851       -1.2613026100        1.3462605356
 H         -6.9923200175       -0.4543898149       -0.0246083772
 H         -6.6502335414        2.5645592216       -2.6149277603
 H         -5.0858769729        2.6929998288       -1.8090611156
 H         -6.6981463767        0.1132378649       -2.0231910896
 H         -5.4391978683        0.6117916755       -3.1667950729
 O         -3.4994850622        0.0546634609       -1.9370837701
 C         -2.3591285289       -0.4674257467       -1.3428715919
 O         -1.3314372927       -0.3736195296       -2.0400905908
 O         -3.8353272614       -1.5747318738        1.7758552622
 C         -1.2398497721       -1.6148528842        0.5887048141
 C         -0.2337662851       -0.5110522275        0.8040983082
 C         -0.5997524738        0.5709280439        1.6016469446
 C          0.2742384344        1.6180322099        1.8180038570
 C          1.5320455172        1.6139555901        1.2398776211
 C          1.9089995871        0.5394649706        0.4471071995
 C          1.0324387100       -0.5210980107        0.2434690923
 H          1.3396310428       -1.3481547434       -0.3771677992
 N          3.1742807202        0.5360213688       -0.1653123605
 S          4.4953029541        1.0627052750        0.7434289328
 O          4.4732475545        0.4493894659        2.0529406571
 O          4.5214355153        2.5039507925        0.7260495285
 C          5.8470284367        0.4213543842       -0.2238529786
 C          6.4089312802       -0.7934822353        0.1203368453
 C          7.4427013533       -1.2967433801       -0.6536757228
 C          7.8920141606       -0.5822364745       -1.7540571705
 C          7.3176460334        0.6356579974       -2.0869110413
 C          6.2843628095        1.1452103362       -1.3168242831
 H          5.8136965917        2.0902697263       -1.5320981881
 H          7.6714397118        1.1889979689       -2.9418291952
 H          8.6969526607       -0.9758693170       -2.3544571151
 H          7.8931992595       -2.2417830940       -0.3961462989
 H          6.0342592637       -1.3100157742        0.9895423570
 H          3.3710808298       -0.3386335419       -0.6318536927
 H          2.2242291216        2.4253736106        1.3974890903
 H         -0.0240262209        2.4488767924        2.4402291641
 H         -1.5845207811        0.5781910030        2.0493582344
 H         -1.5763678956       -1.9638490544        1.5758652227
 C         -0.7088927683       -2.7983486328       -0.1907253388
 C          0.1539903174       -3.8162535220        0.4920097484
 C         -1.2512633544       -4.1633385175        0.1043894428
 H         -1.4071683840       -4.8445834491       -0.7185457809
 H         -1.9937456951       -4.2450159143        0.8846083387
 H          0.9630790816       -4.2648317202       -0.0643893907
 H          0.3694567749       -3.6649184443        1.5390162915
 H         -0.4993908731       -2.5588780462       -1.2270499659
