  62
        -98.93777429
 C          1.2120337990        1.4657232107        0.3026601314
 C          1.7649078093        0.5084830105        1.1860907010
 C          2.9853363799       -0.1957387985        0.7484957309
 C          3.4706076301        0.0602461225       -0.4801087988
 C          4.6732332606       -0.5397864063       -1.1600329888
 C          4.4184269717       -1.9657317962       -1.6699230397
 C          3.7239596720       -2.8877191072       -0.6715415304
 H          2.7489670216       -2.4692041979       -0.4121572405
 H          3.5342536427       -3.8392745570       -1.1759827410
 C          4.5157912718       -3.1824052474        0.6008983996
 H          5.4824504321       -3.6117917967        0.3282999896
 H          3.9595125021       -3.9424520981        1.1555913590
 C          4.7537601708       -1.9943543378        1.5370655404
 H          5.0661652408       -2.4006795182        2.5033758102
 H          5.5714253405       -1.3703621771        1.1860161810
 C          3.5189176302       -1.1389342487        1.7994953105
 H          2.6823489705       -1.7918082394        2.0753163199
 H          3.7035765595       -0.5180004591        2.6844518509
 H          3.7847617219       -1.9012680461       -2.5581767098
 H          5.3743513320       -2.4011436954       -1.9670658697
 H          5.5315598004       -0.5165536662       -0.4951008786
 H          4.8974368005        0.0996104543       -2.0169737784
 O          2.8612838798        0.9357417427       -1.3294487185
 C          1.7194252492        1.6384763117       -0.9851680984
 O          1.2764907390        2.3612484520       -1.8974061881
 O          1.2549408892        0.2402524096        2.3084057407
 C         -0.0525172816        2.1816148796        0.7395892715
 C         -1.1382013312        1.9797504196       -0.2880343590
 C         -1.9435705417        2.9915564193       -0.7927438286
 C         -2.9346343412        2.6979882793       -1.7144707790
 C         -3.1613310503        1.3991711294       -2.1317516499
 C         -2.3576544798        0.3795173596       -1.6334213402
 C         -1.3573245603        0.6803020197       -0.7259817498
 H         -0.7147937999       -0.1114648701       -0.3729218501
 N         -2.5426225389       -0.9557488103       -2.0214959810
 S         -2.2447351084       -2.1783156308       -0.9222445017
 O         -0.8266637283       -2.3884577400       -0.7676134714
 O         -2.9939980576       -3.3063420409       -1.4343448425
 C         -2.9783161192       -1.6122436021        0.6031790885
 C         -2.1936609897       -1.2811242722        1.6884991589
 C         -2.8057611103       -0.7998698733        2.8355831990
 C         -4.1837347204       -0.6597351542        2.8788493587
 C         -4.9603057399       -1.0062446740        1.7832262383
 C         -4.3539817493       -1.4844242230        0.6338225581
 H         -4.9243583189       -1.7736126028       -0.2338317722
 H         -6.0325348000       -0.9015626547        1.8209328980
 H         -4.6535362309       -0.2807063750        3.7726445788
 H         -2.1943397907       -0.5309870134        3.6824007793
 H         -1.1218189496       -1.3920712015        1.6299991791
 H         -3.3604627386       -1.1334831105       -2.5848710314
 H         -3.9387089400        1.1752128593       -2.8458333702
 H         -3.5461981416        3.4947865191       -2.1097097088
 H         -1.7836803624        4.0114104193       -0.4841155780
 H         -0.3631857315        1.6358920189        1.6478099311
 C          0.1388480174        3.6312976395        1.1580796723
 C          1.4855231869        4.1531224001        1.5592079530
 C          0.8413412470        4.6351080205        0.2957024931
 H          0.4586609264        5.6451207702        0.2713968436
 H          1.2356855775        4.2919932512       -0.6472681570
 H          1.5456732063        4.8280033797        2.3999871634
 H          2.3277671174        3.4810226507        1.4761051129
 H         -0.7032527230        3.9979210387        1.7370130323
