  62
        -98.94056271
 C          2.5738459079        0.2698671642       -0.4706331748
 C          2.1948581972        0.9004896987        0.7386430594
 C          1.5141901022        2.1956874975        0.6054061122
 C          1.2697665686        2.6852911397       -0.6232960135
 C          0.4478715467        3.9062859237       -0.9235588360
 C         -1.0494408220        3.5568224388       -0.7928728998
 C         -1.7713288397        4.2940708161        0.3352032287
 H         -1.9385170762        5.3303964507        0.0326164767
 H         -2.7477412290        3.8205132335        0.4559481069
 C         -1.0525076671        4.3078514393        1.6879323168
 H         -1.7892465483        4.6063543723        2.4368143057
 H         -0.2810393724        5.0798382197        1.6844829195
 C         -0.4162060374        2.9818955320        2.1250386612
 H         -0.5689161474        2.8686699004        3.2006318825
 H         -0.9029094976        2.1343322472        1.6412543223
 C          1.1009746395        2.8893953527        1.8732031959
 H          1.5437572263        3.8890856908        1.9060849863
 H          1.5519004456        2.2980048234        2.6754873989
 H         -1.1389297175        2.4781784674       -0.6385547377
 H         -1.5589775795        3.7799042230       -1.7322855305
 H          0.7161076631        4.7107775487       -0.2421746700
 H          0.6795649201        4.2161518771       -1.9429649410
 O          1.6748103789        2.0641102542       -1.7629761191
 C          2.3115402372        0.8352618644       -1.7162808144
 O          2.5975665428        0.3587956979       -2.8358192751
 H          0.5571262226       -1.2016417275       -0.9684636924
 C          0.8085538124       -1.9052984539       -0.1868329736
 C          2.1322932434       -2.0405281931        0.2133969871
 C          2.4346350016       -2.9702611936        1.1988466124
 C          1.4253539224       -3.7100876830        1.7923400839
 C          0.1029180655       -3.5271181383        1.4334242673
 C         -0.2066818862       -2.6144781574        0.4302533939
 N         -1.5353439798       -2.4025964493        0.0202679476
 S         -1.9592709217       -0.8479951114       -0.4906437946
 O         -1.6277847557       -0.7142203069       -1.8882298805
 O         -1.4113319807        0.1479645677        0.4002684040
 C         -3.7313844391       -0.9247693233       -0.3069007701
 C         -4.4669953645       -1.5979000756       -1.2642289976
 C         -5.8415953939       -1.6862964797       -1.1127129377
 C         -6.4544732536       -1.1030633917       -0.0133150875
 C         -5.7035411187       -0.4290671548        0.9378033657
 C         -4.3277151468       -0.3390004006        0.7934240013
 H         -3.7030160691        0.1790681161        1.5035143286
 H         -6.1823586886        0.0262727017        1.7895990954
 H         -7.5246166252       -1.1722000145        0.1014088786
 H         -6.4287574007       -2.2074815674       -1.8514141627
 H         -3.9470565361       -2.0246155351       -2.1060781891
 H         -2.2115040817       -2.7766656325        0.6723907245
 H         -0.6837518529       -4.0813977416        1.9222168724
 H          1.6715905497       -4.4237712692        2.5639268466
 H          3.4563741784       -3.1027232855        1.5149820759
 C          3.1518586727       -1.1347971034       -0.4375677367
 H          3.2687421484       -1.4421307492       -1.4876921024
 C          4.5068605341       -1.1569512646        0.2360267054
 C          5.5190083825       -2.1954148863       -0.1417995639
 C          5.7153727793       -0.7702261984       -0.5604517444
 H          6.4866975019       -0.1897329897       -0.0772534740
 H          5.5608266112       -0.5127706031       -1.5984807117
 H          5.2410903242       -2.9111558015       -0.9007193786
 H          6.1615923432       -2.5935705258        0.6288199685
 H          4.4617585519       -0.8317067836        1.2687371858
 O          2.4100681011        0.4026464195        1.8756427116
