  62
        -98.93790694
 C          1.7680171106        0.5109075794       -0.4371707704
 C          2.9987043806        1.1373793192       -0.7379778708
 C          4.1381130106        0.8002893496        0.1330227093
 C          3.9490037806       -0.0581718899        1.1504138898
 C          4.9805574607       -0.5757536595        2.1143013899
 C          5.5691645706       -1.9068938497        1.6165710605
 C          6.7642085606       -1.7713039102        0.6737458804
 H          7.6310316106       -1.4251382400        1.2406831901
 H          6.9968172505       -2.7705145404        0.2983192108
 C          6.5550044205       -0.8348051408       -0.5191539601
 H          7.2881607404       -1.0983256412       -1.2840132800
 H          5.5656929705       -1.0013239509       -0.9492165499
 C          6.7253975106        0.6485791194       -0.1591127608
 H          7.1838483206        0.7255838299        0.8266967591
 H          7.4216201605        1.1133325490       -0.8604420611
 C          5.4371351806        1.4839749494       -0.1960979511
 H          5.2915120305        1.8830031589       -1.2049888713
 H          5.5540021207        2.3487931997        0.4659722085
 H          5.8859980807       -2.4945926193        2.4805695708
 H          4.7692510106       -2.4616450199        1.1196538008
 H          5.7600494107        0.1620901606        2.2794628395
 H          4.4616958508       -0.7563618690        3.0581098701
 O          2.7433563706       -0.6336963997        1.4106232301
 C          1.6271297906       -0.3716903501        0.6337244101
 O          0.5981637506       -0.9707498298        0.9934741404
 O          3.1412150405        1.9443372388       -1.6973547211
 C          0.5639375805        0.8066652391       -1.3092621004
 C         -0.5707691694        1.4047281495       -0.5134238406
 C         -0.3061906793        2.2358874100        0.5708569090
 C         -1.3338485692        2.7802750804        1.3181640688
 C         -2.6538699593        2.5225575303        0.9922077290
 C         -2.9307181194        1.7170154497       -0.1023586806
 C         -1.8963617395        1.1644400594       -0.8477129104
 H         -2.1327644895        0.5350480190       -1.6920874201
 N         -4.2811712494        1.4562707896       -0.4316766404
 S         -5.0830991494        0.3902414301        0.5850372902
 O         -6.4312524894        0.2932094999        0.0737656403
 O         -4.9400346993        0.8500386608        1.9415439999
 C         -4.2337011294       -1.1591638800        0.3441440209
 C         -2.9812477794       -1.3221292998        0.9014467108
 C         -2.2681363095       -2.4776925499        0.6232268314
 C         -2.8226093996       -3.4488381303       -0.1963385081
 C         -4.0871783196       -3.2756468505       -0.7401635181
 C         -4.7972266195       -2.1154033004       -0.4785038286
 H         -5.7777726596       -1.9332937205       -0.8882580187
 H         -4.5152038597       -4.0362623108       -1.3733894777
 H         -2.2627230496       -4.3454230104       -0.4127864078
 H         -1.2746964594       -2.5842777598        1.0294252913
 H         -2.5679649993       -0.5555336095        1.5367178205
 H         -4.4053495995        1.1481894092       -1.3869285202
 H         -3.4680124992        2.9193410106        1.5759972589
 H         -1.1049860992        3.4118697808        2.1634581085
 H          0.7223446907        2.4443024701        0.8321436088
 H          0.9079681005        1.5627838287       -2.0317628208
 C          0.1525331604       -0.4411660713       -2.0671364398
 C         -0.3830221397       -0.3488259219       -3.4642425098
 C          0.9917803303       -0.8935674319       -3.2229642096
 H          1.1618522803       -1.9512459419       -3.3560542391
 H          1.8393254503       -0.2784419920       -3.4886357300
 H         -1.1584627697       -1.0375239221       -3.7652947094
 H         -0.4641242497        0.6321616878       -3.9082183303
 H         -0.2537045296       -1.2054264510       -1.4136607294
