  62
        -98.93748016
 C         -1.5493319593       -1.4549226700        0.5097282800
 C         -1.6202400502       -0.1274985099        1.0024886295
 C         -2.8020308305        0.6583140394        0.6131939589
 C         -3.7337251800        0.0965675986       -0.1759752412
 C         -5.0363569501        0.6860968377       -0.6563274718
 C         -5.0149279208        2.1386295476       -1.1513116722
 C         -3.7086774709        2.5712880181       -1.8328428719
 H         -3.0827967603        1.6995877484       -2.0323777515
 H         -3.9456242008        3.0284985377       -2.7954328021
 C         -2.9181067117        3.5907100888       -1.0097731420
 H         -2.2279917718        4.1162402290       -1.6737746319
 H         -3.6150669622        4.3306397185       -0.6101994124
 C         -2.0889499817        3.0131921396        0.1370046885
 H         -1.2344084713        2.4597580800       -0.2621584611
 H         -1.6872905724        3.8504773700        0.7106350683
 C         -2.8387683515        2.0784066795        1.0997337685
 H         -3.8576195417        2.4185152789        1.2688980881
 H         -2.3044106818        2.0834213901        2.0533916687
 H         -5.8447911007        2.2452211369       -1.8520378725
 H         -5.2198512415        2.8102978777       -0.3188864924
 H         -5.3638724595        0.0284182173       -1.4650443517
 H         -5.7691440403        0.5932445875        0.1504897780
 O         -3.6157629791       -1.1772456515       -0.6437803308
 C         -2.5219534387       -1.9749298208       -0.3426056202
 O         -2.5548475179       -3.0960003110       -0.8846571399
 O         -0.7395734107        0.3761608209        1.7485054197
 C         -0.3202727689       -2.2740660691        0.8700978206
 C          0.6096301914       -2.2472546790       -0.3179216891
 C          0.6430173123       -3.2494582592       -1.2798499788
 C          1.4767803726       -3.1314679691       -2.3778447086
 C          2.3022854420       -2.0313405587       -2.5271439787
 C          2.2756295811       -1.0233716484       -1.5697798190
 C          1.4248431508       -1.1340199185       -0.4817402792
 H          1.3902552602       -0.3421409583        0.2518674705
 N          3.0907104505        0.1132236120       -1.6872712391
 S          3.8803684798        0.6862062329       -0.3226035590
 O          5.0197295995        1.4110955434       -0.8468286489
 O          4.1831078201       -0.3864711466        0.5964802314
 C          2.7614240789        1.8532896725        0.4177420803
 C          2.2867762085        2.8897888520       -0.3613951401
 C          1.4596700978        3.8362216417        0.2199138393
 C          1.1267043774        3.7321066919        1.5621656192
 C          1.6069562678        2.6832423924        2.3286494697
 C          2.4350742185        1.7337549727        1.7530152302
 H          2.8268059488        0.8988865031        2.3125274506
 H          1.3357411775        2.5951591626        3.3680695196
 H          0.4865384069        4.4726641017        2.0154313488
 H          1.0755130175        4.6506697613       -0.3732878610
 H          2.5732668088        2.9385799618       -1.3990463001
 H          3.7021077308        0.1117684222       -2.4912042589
 H          2.9604696322       -1.9491155485       -3.3791245585
 H          1.4909170733       -3.9121477293       -3.1236081884
 H         -0.0010923572       -4.1074611496       -1.1782206088
 H          0.1681938705       -1.7205501786        1.6840618406
 C         -0.6465644883       -3.6670042492        1.3618211909
 C          0.4246853520       -4.4603309784        2.0468444115
 C         -0.7291370486       -3.9208491988        2.8360020810
 H         -1.4749443683       -4.6126515291        3.1978215909
 H         -0.5482411393       -3.0876802085        3.4993784408
 H          0.4741857126       -5.5235589884        1.8684264618
 H          1.3893877817       -3.9903261378        2.1695783616
 H         -1.3457048478       -4.1989906298        0.7296080308
