  62
        -98.94032711
 C          2.1856176648        0.9131057978        0.2643092612
 C          1.0722515195        1.2412457409        1.0705970222
 C          0.3029651574        2.4361412294        0.6768572190
 C          0.6287190785        3.0858158877       -0.4521017950
 C         -0.1010508307        4.2431302952       -1.0743192675
 C         -1.1259660554        3.7361121452       -2.1037546946
 C         -2.5059339785        3.4170503524       -1.5312204018
 H         -2.9984303827        4.3477645480       -1.2395642921
 H         -3.0934842679        2.9700369041       -2.3367438114
 C         -2.5101162175        2.4574594761       -0.3376956637
 H         -3.5053780598        2.0106758773       -0.2729041209
 H         -1.8099050273        1.6419583065       -0.5276058218
 C         -2.1921222319        3.1481334747        0.9964051868
 H         -2.2998414381        4.2254458284        0.8656145339
 H         -2.9365959216        2.8481336191        1.7364471355
 C         -0.8116046800        2.8423803924        1.6028079108
 H         -0.4778767918        3.7114683991        2.1795368289
 H         -0.9027903085        2.0119315220        2.3084149489
 H         -0.7152853091        2.8389338625       -2.5756355731
 H         -1.2471067028        4.4917960297       -2.8830708124
 H         -0.5803311526        4.8505646693       -0.3116756693
 H          0.6468026125        4.8473477482       -1.5920460888
 O          1.6783174186        2.7120742978       -1.2331345056
 C          2.4747638495        1.6363249255       -0.8963623667
 O          3.4120497746        1.4237711956       -1.6939195070
 H          0.5309817720       -1.1676116472        0.5104419172
 C          1.1628819352       -1.7835987894       -0.1044538199
 C          2.5175259779       -1.5030799434       -0.1951447841
 C          3.3186801775       -2.3346126804       -0.9678666271
 C          2.7667429051       -3.4057378890       -1.6485361347
 C          1.4033695561       -3.6373079427       -1.6101258129
 C          0.5937046923       -2.8094848098       -0.8409163325
 N         -0.8030599379       -2.9691550385       -0.8089259541
 S         -1.7798501859       -1.6292055749       -1.1432882499
 O         -2.6456506144       -2.0450394102       -2.2307793319
 O         -0.9808827060       -0.4534521065       -1.3815422604
 C         -2.7787353706       -1.4563033354        0.3229711074
 C         -4.0297240845       -2.0445855520        0.3269137994
 C         -4.8251299562       -1.9329622353        1.4552900285
 C         -4.3595813302       -1.2368657585        2.5605472129
 C         -3.1027895165       -0.6532527113        2.5420221061
 C         -2.3011281875       -0.7628960568        1.4161425928
 H         -1.3216496149       -0.3131813762        1.3892746348
 H         -2.7328938111       -0.1119048337        3.3984313462
 H         -4.9778060962       -1.1471766735        3.4399125404
 H         -5.8030376551       -2.3867051001        1.4690586224
 H         -4.3560421263       -2.5646687552       -0.5586188962
 H         -1.1288903745       -3.7579431066       -1.3505339466
 H          0.9659349455       -4.4446653879       -2.1785551013
 H          3.3995137190       -4.0480585512       -2.2423362007
 H          4.3751190323       -2.1263087739       -1.0515748980
 C          3.0850300942       -0.2903085754        0.5065600974
 H          4.0439055511       -0.0499031351        0.0255822378
 C          3.3455421087       -0.5897235287        1.9694943108
 C          4.6035829710       -1.3054950342        2.3553564081
 C          4.4343938598        0.1460138968        2.6881380912
 H          4.2710033985        0.4282928477        3.7170497921
 H          5.0051610594        0.8688552570        2.1229892012
 H          4.5584874726       -2.0257224514        3.1575663007
 H          5.2959926560       -1.5658020299        1.5692389575
 H          2.4461470749       -0.8143846286        2.5266825159
 O          0.7013925607        0.5757740317        2.0765649862
