  62
        -98.94355941
 C         -1.9612809796       -1.4419960193        0.1759324588
 C         -2.1699739132       -0.4796272229        1.1977575555
 C         -3.1409702356        0.5789899510        0.9054368484
 C         -3.7662421649        0.5962112850       -0.2857996501
 C         -4.8206169392        1.5775945612       -0.7209919285
 C         -4.2645303007        2.8978642196       -1.2707173486
 C         -3.6715156934        3.8384221281       -0.2213330236
 H         -3.5296599706        4.8074377053       -0.7039004582
 H         -4.3909173244        3.9805221486        0.5857261531
 C         -2.3275528328        3.3738600323        0.3566645562
 H         -1.6367174059        4.2190533494        0.3803814853
 H         -1.8905003212        2.6161543175       -0.2975270857
 C         -2.4029108420        2.8132837554        1.7768940236
 H         -2.6991779349        3.6045980175        2.4693425477
 H         -1.4059379641        2.4686510632        2.0632612390
 C         -3.3721555288        1.6360414676        1.9430322800
 H         -3.1970535986        1.1834445304        2.9222955771
 H         -4.4027876689        1.9885694288        1.9017426166
 H         -5.0883124824        3.4153726432       -1.7677202150
 H         -3.5098199806        2.6709435227       -2.0270016790
 H         -5.4931340551        1.7838680390        0.1124391800
 H         -5.3905650690        1.0875598959       -1.5133350793
 O         -3.5180836425       -0.3257588831       -1.2507189843
 C         -2.6027849310       -1.3524539984       -1.0603247094
 O         -2.4765802127       -2.0940504455       -2.0527728168
 O         -1.5809859521       -0.5159701410        2.3119119806
 C         -0.9808025292       -2.5640384156        0.4776506832
 C          0.3632294653       -2.2433869688       -0.1306915570
 C          0.6353116984       -2.4492368752       -1.4786128474
 C          1.8754273747       -2.1227439282       -1.9977429076
 C          2.8653056120       -1.5878685884       -1.1916795483
 C          2.5970488605       -1.3614141915        0.1518265082
 C          1.3516575734       -1.6889720391        0.6713469181
 H          1.1392376706       -1.5021806670        1.7156118620
 N          3.5923037312       -0.8197733293        0.9852726496
 S          4.4382020258        0.5277267963        0.4694746689
 O          5.3523614306        0.1499004780       -0.5782205285
 O          5.0318687274        1.0780291430        1.6662306800
 C          3.1957941212        1.6340997669       -0.1701155629
 C          3.0045008363        1.7471818233       -1.5319061295
 C          1.9944600671        2.5733657437       -1.9988561878
 C          1.1985633868        3.2676436777       -1.1013391277
 C          1.4068282558        3.1465965642        0.2641967756
 C          2.4107472044        2.3183385868        0.7367465948
 H          2.6061995555        2.2051891209        1.7911516544
 H          0.7886002301        3.6897197865        0.9608636623
 H          0.4120898015        3.9089645828       -1.4670495635
 H          1.8303386540        2.6711152493       -3.0599730362
 H          3.6497161467        1.1987692166       -2.1980454279
 H          3.2962025827       -0.7046303317        1.9436847293
 H          3.8401149038       -1.3445139516       -1.5817168473
 H          2.0764955697       -2.2909175863       -3.0449404576
 H         -0.1379471067       -2.8432956994       -2.1185555949
 H         -0.8607039333       -2.5483132890        1.5695627170
 C         -1.4855174733       -3.9341904636        0.0748740185
 C         -0.8222659512       -5.1461760407        0.6548724048
 C         -2.2088291679       -4.7727730249        1.0836736358
 H         -3.0353326766       -5.3815473640        0.7490620872
 H         -2.3436228588       -4.3622422490        2.0739194415
 H         -0.6934890615       -6.0136980742        0.0262235313
 H         -0.0149075796       -4.9869491703        1.3539157328
 H         -1.8299945239       -3.9895669832       -0.9489130536
