  62
        -98.93147198
 C         -2.0765299938       -0.7481956597        0.8448630283
 C         -2.3255056738       -0.2930814873       -0.4741009384
 C         -2.6989437060        1.1248670666       -0.5999530092
 C         -2.7246978385        1.9044806343        0.4952362277
 C         -3.1298470397        3.3493761628        0.5135915145
 C         -4.6351813069        3.5050685583        0.7721750355
 C         -5.5095680292        2.6198039793       -0.1157339384
 H         -5.3280572966        1.5727802102        0.1369937873
 H         -6.5503505540        2.8362267835        0.1343224568
 C         -5.2929361138        2.8207155604       -1.6220231868
 H         -6.2672192595        2.8730034239       -2.1122381077
 H         -4.7886102216        3.7710372376       -1.8004215428
 C         -4.5105748323        1.6974688826       -2.3051078182
 H         -4.9572425814        0.7327858518       -2.0521619069
 H         -4.6019631021        1.8276576395       -3.3866327419
 C         -3.0129464153        1.6339214199       -1.9785773629
 H         -2.5485622544        0.9246242218       -2.6703266488
 H         -2.5567456336        2.6132525996       -2.1392285809
 H         -4.9032043611        4.5524447024        0.6223862958
 H         -4.8348975796        3.2484165275        1.8150603376
 H         -2.5774173539        3.8495172806        1.3110328540
 H         -2.8632036549        3.8054914874       -0.4379845280
 O         -2.4194185680        1.4452049202        1.7364289850
 C         -2.0823533809        0.1184701951        1.9380100805
 O         -1.8070711666       -0.1654009425        3.1236428467
 H          0.6084472822       -1.1023854010        1.6134867694
 C          0.6975606745       -1.7301079767        0.7335010327
 C         -0.4180699353       -2.4485251097        0.3064629957
 C         -0.2835885829       -3.2193632946       -0.8401035095
 C          0.9203776725       -3.2625614922       -1.5262301364
 C          2.0150841420       -2.5340723516       -1.1025355804
 C          1.8933093730       -1.7563882274        0.0400426152
 N          2.9954418875       -0.9618731409        0.4592200482
 S          3.1168815762        0.4811040160       -0.4216182113
 O          2.2110167904        1.4704588979        0.1289584841
 O          2.9668173879        0.1782835513       -1.8211757766
 C          4.8036981569        0.9452172023       -0.0796617230
 C          5.8125410236        0.3134474102       -0.7808910530
 C          7.1295419203        0.6383454207       -0.4988420270
 C          7.4143675213        1.5831271282        0.4759866208
 C          6.3909751577        2.2086720086        1.1714309321
 C          5.0712876404        1.8867904396        0.8945224109
 H          4.2436013915        2.3532164236        1.4047743713
 H          6.6142108812        2.9445520026        1.9271800043
 H          8.4401329974        1.8354049862        0.6937946690
 H          7.9280102593        0.1553234174       -1.0385695869
 H          5.5422280316       -0.4074363876       -1.5343626209
 H          2.8978661227       -0.6975630372        1.4323802711
 H          2.9429447701       -2.5363933585       -1.6496934522
 H          0.9954136418       -3.8643242910       -2.4193972548
 H         -1.1181095297       -3.7669494070       -1.2383528939
 C         -1.6669568954       -2.1937085417        1.1162274515
 H         -1.3552887606       -2.2005016568        2.1734008515
 C         -2.8741434401       -3.1155256559        1.0525049474
 C         -3.5326829386       -3.6196126888       -0.1939166267
 C         -2.8153106834       -4.5746637026        0.7134844318
 H         -3.4119359302       -5.2526330321        1.3058151880
 H         -1.8707471411       -4.9875736897        0.3990267532
 H         -4.6132862058       -3.6456241957       -0.2066404547
 H         -3.1052304412       -3.3423989643       -1.1431422018
 H         -3.5575805039       -2.8468729584        1.8558742602
 O         -2.2427736988       -1.0191638850       -1.4958498565
