  62
        -98.93834344
 C         -2.2488204076       -0.9951654377        0.3945036191
 C         -2.4789339848       -0.1223136933       -0.6938327378
 C         -3.3495055619        1.0393880964       -0.4311544397
 C         -3.8550870820        1.2229778454        0.8027913739
 C         -4.7302877516        2.3216868771        1.3699185843
 C         -5.4514961782        3.3011051763        0.4476025853
 C         -6.5613263250        2.6808352388       -0.4005953233
 H         -7.3850987122        2.3977932399        0.2595601860
 H         -6.9331411921        3.4441617110       -1.0875132165
 C         -6.1662327873        1.4420043313       -1.2005313307
 H         -7.0495248182        1.1028043965       -1.7484377893
 H         -5.8844356706        0.6383165162       -0.5171393923
 C         -5.0422896765        1.6488055883       -2.2138839725
 H         -5.2964182803        2.4743397612       -2.8814416235
 H         -4.9722293690        0.7398326155       -2.8172013901
 C         -3.6503452903        1.9136031778       -1.6144148699
 H         -2.9024031257        1.6658838757       -2.3733633870
 H         -3.5219262513        2.9629858117       -1.3601775417
 H         -4.7361490327        3.8225211013       -0.1814560516
 H         -5.9119672343        4.0537196159        1.0935230969
 H         -4.0865332465        2.8938943402        2.0473976299
 H         -5.4677932363        1.8168918370        2.0021800883
 O         -3.5706571729        0.3699522111        1.8325361651
 C         -2.7767655011       -0.7496589294        1.6591785189
 O         -2.6121130514       -1.4298844842        2.6935735645
 O         -1.9775609737       -0.2955576007       -1.8343298624
 C         -1.3818203546       -2.2262847215        0.2097939115
 C          0.0089380785       -1.8328337842       -0.2284404430
 C          0.7128783388       -2.5035516828       -1.2197839649
 C          1.9950545212       -2.1071229194       -1.5595341120
 C          2.6023074093       -1.0410194258       -0.9226309644
 C          1.9127819697       -0.3709364641        0.0797127312
 C          0.6317045419       -0.7745688687        0.4220585901
 H          0.0977282440       -0.2535416310        1.2085882550
 N          2.5181526986        0.7209497752        0.7286381736
 S          4.0435691939        0.4892323786        1.3939161229
 O          4.2429015881       -0.8849045416        1.7932549082
 O          4.1559550847        1.4843702027        2.4382651029
 C          5.1567676077        0.9090273633        0.0696384366
 C          5.0280473482        2.1518696437       -0.5188888926
 C          5.8922296536        2.4983178601       -1.5451624421
 C          6.8666269901        1.6027839261       -1.9606361713
 C          6.9848242236        0.3601866218       -1.3571254315
 C          6.1227405629        0.0066972013       -0.3305924005
 H          6.1722851744       -0.9501778443        0.1640601578
 H          7.7428657878       -0.3343147843       -1.6817619671
 H          7.5377095970        1.8754070395       -2.7597697886
 H          5.8028133493        3.4634294437       -2.0173017139
 H          4.2593180419        2.8184423179       -0.1648334001
 H          1.9124465749        1.1797944901        1.3937596690
 H          3.5972771592       -0.7248735929       -1.1900689206
 H          2.5274514640       -2.6342981519       -2.3363233642
 H          0.2564923721       -3.3359235050       -1.7295775348
 H         -1.3005444489       -2.6917026254        1.2039288734
 C         -2.0584729251       -3.2022186353       -0.7308308809
 C         -1.8472618364       -4.6771088949       -0.5731248748
 C         -3.1630078728       -4.0644094757       -0.2006661051
 H         -4.0192631455       -4.2528053832       -0.8307315695
 H         -3.4062343309       -3.9676300023        0.8479233380
 H         -1.8035091109       -5.2901921675       -1.4606423920
 H         -1.1995609754       -5.0076593225        0.2249583040
 H         -2.1720908313       -2.8023156125       -1.7317185339
