  62
        -98.94304523
 C          0.8023011630        2.0348849016       -0.5473721978
 C          1.4591310080        1.0929672637       -1.3767320159
 C          2.7622234100        0.6113225003       -0.8832147649
 C          3.2264860315        1.0088043504        0.3131925622
 C          4.5271778575        0.5969164208        0.9475943660
 C          4.4664484216       -0.7614510815        1.6593690666
 C          4.4624278648       -1.9797930242        0.7353710945
 H          5.2791260727       -1.8937007317        0.0171006536
 H          4.6648304828       -2.8532627048        1.3586417053
 C          3.1394651809       -2.2067468620       -0.0090695811
 H          2.3380079552       -1.6651899622        0.5007448266
 H          2.8763200055       -3.2670008183        0.0368460772
 C          3.1699872157       -1.8127268825       -1.4856562257
 H          3.8902994460       -2.4427751551       -2.0132203952
 H          2.1837547066       -2.0063018541       -1.9127232099
 C          3.5283024645       -0.3448611705       -1.7503748452
 H          4.5987518762       -0.1931677196       -1.6096303700
 H          3.2770684652       -0.1168961211       -2.7895824863
 H          3.5752709050       -0.7860776180        2.2919929596
 H          5.3410725034       -0.8285189812        2.3111223361
 H          5.3170977748        0.5805013192        0.1955147865
 H          4.7667397993        1.3644314082        1.6869347740
 O          2.5485645729        1.8860760526        1.0998680376
 C          1.3412031637        2.4181815143        0.6861181629
 O          0.8445788592        3.2361984028        1.4877369261
 H         -0.8532871240        0.2349860244        0.1731525987
 C         -1.5608357032        0.9204913930        0.6075632412
 C         -1.5411860437        2.2472862762        0.2066604111
 C         -2.4334892638        3.1353483165        0.7929303444
 C         -3.3061927098        2.6996881409        1.7747360543
 C         -3.3023685698        1.3808596993        2.1916402974
 C         -2.4161060069        0.4823036781        1.6058389495
 N         -2.3989937362       -0.8608170064        1.9897510375
 S         -1.1745962625       -1.9225607136        1.5950539608
 O         -1.4164341641       -3.0598912910        2.4574209359
 O          0.1342358473       -1.3207681567        1.6956707798
 C         -1.5665260914       -2.3658952001       -0.0835186861
 C         -2.7489803845       -3.0458948029       -0.3046081086
 C         -3.1054172644       -3.3658376640       -1.6040498565
 C         -2.2820918593       -2.9967706067       -2.6581159301
 C         -1.0964418300       -2.3205159045       -2.4199488778
 C         -0.7327037689       -2.0051029700       -1.1205357259
 H          0.1810667124       -1.4720671424       -0.9101425208
 H         -0.4532471097       -2.0152498781       -3.2300553871
 H         -2.5649901519       -3.2367545992       -3.6708646006
 H         -4.0253917646       -3.8951122709       -1.7931822598
 H         -3.3585805233       -3.3153148156        0.5418513896
 H         -2.9056569181       -1.1010890071        2.8266271885
 H         -3.9686308363        1.0488969700        2.9729072761
 H         -3.9885413566        3.3991133161        2.2337102034
 H         -2.4200059056        4.1748271757        0.4999251781
 C         -0.5467545535        2.6841276868       -0.8410193905
 H         -0.3994179447        3.7706655097       -0.7122042050
 C         -1.0662070060        2.4639976215       -2.2524039931
 C         -2.0310848817        1.3755234834       -2.6030846524
 C         -2.4844039637        2.8032805517       -2.6041178277
 H         -2.6748330598        3.2844446948       -3.5513957318
 H         -3.1393656203        3.1190098435       -1.8063732597
 H         -1.8896520368        0.8691575332       -3.5450655111
 H         -2.3803491798        0.7290174209       -1.8120694420
 H         -0.3148255310        2.6937774827       -2.9985234081
 O          1.0282294623        0.6648891202       -2.4772976566
