  62
        -98.94017279
 C          2.0575460580        1.4663181149        0.5148254519
 C          2.0496189256        0.2889152488        1.3067891235
 C          3.0972416110       -0.6980487663        1.0227590339
 C          3.9960828308       -0.4377368492        0.0562752328
 C          5.0723583423       -1.3832538334       -0.3905325732
 C          4.5835128918       -2.2713213548       -1.5439528539
 C          3.2270939094       -2.9293551182       -1.2888174211
 H          2.4576390230       -2.1550908093       -1.2412094389
 H          3.0024329457       -3.5529506696       -2.1567351969
 C          3.1658145569       -3.7836562692       -0.0148583114
 H          2.6647715814       -4.7254725245       -0.2482170974
 H          4.1758500148       -4.0300111319        0.3147332233
 C          2.3971799846       -3.1413013887        1.1413848380
 H          2.2204284924       -3.9082138044        1.9001811356
 H          1.4247236389       -2.7931160043        0.7859213519
 C          3.0966805274       -1.9640672754        1.8318780691
 H          2.5413911023       -1.7352817348        2.7461527465
 H          4.1140585034       -2.2466245750        2.1096984620
 H          5.3352241442       -3.0411940551       -1.7280754963
 H          4.5011246738       -1.6556873357       -2.4426756266
 H          5.3810878569       -1.9993838499        0.4517503369
 H          5.9271679533       -0.7971063015       -0.7321595213
 O          3.9879393079        0.7084192562       -0.6673729447
 C          3.0076885040        1.6790619003       -0.4847089983
 O          3.1153214473        2.6464316049       -1.2591813166
 O          1.1989413484        0.0778718579        2.2127213099
 C          0.9373922287        2.4558912916        0.7844280019
 C         -0.2732149046        2.0465341892       -0.0151780535
 C         -0.2002458914        1.8900016903       -1.3963550556
 C         -1.3075191443        1.4754399658       -2.1133303375
 C         -2.5008592331        1.1938232078       -1.4702922995
 C         -2.5772641243        1.3269645967       -0.0905254939
 C         -1.4678986569        1.7585829042        0.6264296571
 H         -1.5288342903        1.8507275032        1.7020285213
 N         -3.7776341310        1.0206008388        0.5724497387
 S         -4.5666565375       -0.3975858352        0.1599714815
 O         -5.2758713976       -0.2090616932       -1.0806385198
 O         -5.3786411248       -0.7218892564        1.3106600286
 C         -3.2754522103       -1.6091954942       -0.0550842628
 C         -2.9998792739       -2.1106091159       -1.3107639278
 C         -1.9707675804       -3.0274068728       -1.4543205088
 C         -1.2393397858       -3.4245487353       -0.3459006295
 C         -1.5306963293       -2.9140268337        0.9100464113
 C         -2.5560568567       -1.9950663381        1.0585415700
 H         -2.8091802320       -1.5843632527        2.0227340421
 H         -0.9593886910       -3.2204085303        1.7717835728
 H         -0.4375780362       -4.1374800948       -0.4598009545
 H         -1.7412574635       -3.4277617044       -2.4286903046
 H         -3.5961664069       -1.7812520202       -2.1458922735
 H         -3.7271321044        1.1235883463        1.5755283948
 H         -3.3725185771        0.8724750835       -2.0165170503
 H         -1.2411988020        1.3662760617       -3.1852317974
 H          0.7350697090        2.0947975876       -1.8963227370
 H          0.6900254672        2.3152908509        1.8487945107
 C          1.3302626398        3.9133438060        0.6023854739
 C          0.7680561223        4.8002501578       -0.4638036894
 C          0.3514488876        4.9926093955        0.9615098272
 H          0.7068475684        5.8600749910        1.4966354660
 H         -0.6476045091        4.6844931684        1.2325912569
 H          1.4341958651        5.5199493404       -0.9144323742
 H          0.0478571477        4.3863138522       -1.1516424075
 H          2.3663239887        4.0903837441        0.8705941492
