  62
        -98.93343341
 C          2.4441269515        1.0191385543        0.5029953372
 C          2.3673639302       -0.2793433072       -0.0547524150
 C          3.5319163460       -1.1584224497        0.1765207276
 C          4.5636181390       -0.7078105999        0.9092922105
 C          5.8562135386       -1.4157028489        1.2072632936
 C          6.9334518043       -1.0338231148        0.1778609203
 C          6.9475256797       -1.8902123896       -1.0878008896
 H          7.6600619940       -1.4352967348       -1.7798054536
 H          7.3206738043       -2.8866524485       -0.8420851765
 C          5.5982139402       -2.0350321389       -1.7965379079
 H          5.0914679062       -1.0686166189       -1.8246033866
 H          5.7935068645       -2.3264956984       -2.8304335918
 C          4.6852476976       -3.0865694535       -1.1483943658
 H          5.2714178307       -3.6836722440       -0.4500033359
 H          4.3251917337       -3.7741816024       -1.9164699271
 C          3.4431801853       -2.5297582090       -0.4358578834
 H          2.6145334417       -2.4613723750       -1.1477408511
 H          3.1289568547       -3.2368414808        0.3390141762
 H          6.7849191077        0.0158441067       -0.0890021022
 H          7.9143540733       -1.1137364826        0.6507822548
 H          6.1791597337       -1.0723673328        2.1923026901
 H          5.7082851768       -2.4909241173        1.2417643732
 O          4.5802040052        0.5375741850        1.4601555848
 C          3.5330533864        1.4207659982        1.2811552930
 O          3.6811060184        2.5152114377        1.8609602252
 O          1.3891241763       -0.6996316749       -0.7245670665
 C          1.3209294763        2.0308177105        0.3475949613
 C         -0.0097070848        1.3740945089        0.6197110100
 C         -0.2870857829        0.9394112001        1.9128375422
 C         -1.4900022920        0.3290059810        2.2109677257
 C         -2.4432388469        0.1369026055        1.2261406098
 C         -2.1775130008        0.5670952284       -0.0659833034
 C         -0.9704653301        1.1886417578       -0.3607534325
 H         -0.7699479918        1.4985337824       -1.3747056567
 N         -3.1313455059        0.3568612595       -1.0746132437
 S         -4.7266943164        0.7793281155       -0.7898115137
 O         -5.2954382170        1.0153404084       -2.0991724524
 O         -4.8250610102        1.8663381218        0.1569302926
 C         -5.4497190876       -0.6959074293       -0.1034363780
 C         -5.3454113208       -1.8688324473       -0.8250284000
 C         -5.9113657400       -3.0238803216       -0.3097824302
 C         -6.5707562462       -2.9863916845        0.9099127312
 C         -6.6699981167       -1.8001236148        1.6205459772
 C         -6.1050836342       -0.6412928630        1.1109162804
 H         -6.1530551540        0.3024138134        1.6307517398
 H         -7.1834484133       -1.7731172350        2.5682657401
 H         -7.0100585568       -3.8871653553        1.3086409422
 H         -5.8358989470       -3.9483648178       -0.8593761923
 H         -4.8273843532       -1.8561605065       -1.7694921303
 H         -2.8289000938        0.6440368535       -1.9936356449
 H         -3.3819509241       -0.3432252587        1.4497283214
 H         -1.6877052944       -0.0046886605        3.2184809876
 H          0.4607207541        1.0822432236        2.6816650421
 H          1.4964408001        2.7706317476        1.1460618860
 C          1.3528683950        2.8013101654       -0.9642520832
 C          2.6565023662        3.1388125705       -1.6224554660
 C          1.7207527990        2.1647284772       -2.2695469553
 H          1.1923898116        2.4786708189       -3.1584817171
 H          1.9776606324        1.1174920026       -2.2623218303
 H          2.7708832674        4.1173792615       -2.0639774045
 H          3.5584883922        2.7587122832       -1.1650659146
 H          0.5862041658        3.5703894745       -0.9961237786
