  62
        -98.93670608
 C         -1.8816670211       -1.5217470477       -0.0218543385
 C         -1.7118302505       -0.1403172826        0.2267966940
 C         -2.9378593719        0.6375258024        0.4954217184
 C         -4.1328117008        0.0198084461        0.4885569388
 C         -5.5309640269        0.5426533990        0.7447409445
 C         -5.8076977189        2.0430105508        0.7932614269
 C         -5.6558260608        2.7658554324       -0.5452334200
 H         -6.4690743114        2.4496916040       -1.2035367930
 H         -5.7692106574        3.8378162536       -0.3695131562
 C         -4.3439543772        2.5195142662       -1.2864550028
 H         -4.3806329276        3.0795211079       -2.2249278195
 H         -4.2636151414        1.4622234536       -1.5477743421
 C         -3.0804912604        2.9443729393       -0.5409617964
 H         -3.1616668932        3.9932499236       -0.2491297426
 H         -2.2427236621        2.8541127476       -1.2380300066
 C         -2.7408314494        2.1113106578        0.7063944566
 H         -1.6779804947        2.2463366677        0.9273016646
 H         -3.2996778471        2.4529074680        1.5740332591
 H         -5.1936174670        2.5144693966        1.5548757023
 H         -6.8475824091        2.1566060199        1.1116715674
 H         -5.8416140499        0.1018723385        1.6985311003
 H         -6.1643447418        0.0866252091       -0.0231446085
 O         -4.2439664365       -1.3241775742        0.2678371018
 C         -3.1408549292       -2.1217207088        0.0224367861
 O         -3.4071322468       -3.3303303633       -0.1313417723
 O         -0.5943730139        0.4352273261        0.2360612478
 C         -0.6982924993       -2.4321950367       -0.2977924950
 C          0.4318770515       -2.1213396124        0.6542330370
 C          0.1941107030       -2.2158067379        2.0236963600
 C          1.1943027412       -1.9390187566        2.9342325222
 C          2.4544967177       -1.5657903570        2.5001125932
 C          2.7070366236       -1.4784745190        1.1363122379
 C          1.6989486797       -1.7625757070        0.2231190251
 H          1.9182033817       -1.6743586115       -0.8270972507
 N          3.9936424302       -1.1531965708        0.6808602437
 S          4.3259654059       -0.1702373999       -0.6263057465
 O          3.6665684920       -0.6699175640       -1.8054886624
 O          5.7716739609       -0.1302158170       -0.6754293432
 C          3.7170496489        1.4537343519       -0.2050521510
 C          2.3572635358        1.6865977199       -0.1580461786
 C          1.9122161905        2.9536665889        0.1866869119
 C          2.8211046701        3.9595370055        0.4739246622
 C          4.1839721943        3.7071651602        0.4245127248
 C          4.6374344472        2.4432084637        0.0852106990
 H          5.6868004506        2.2020816710        0.0312921373
 H          4.8916041003        4.4891649934        0.6489224453
 H          2.4650287178        4.9430199655        0.7379938014
 H          0.8497434518        3.1334805159        0.2296130707
 H          1.6528655531        0.8988885469       -0.3707151516
 H          4.6651575146       -0.9868011273        1.4159793960
 H          3.2369439267       -1.3478509500        3.2111430480
 H          0.9924704632       -2.0102302942        3.9925682841
 H         -0.7929671023       -2.5011288870        2.3630485948
 H         -1.0598321029       -3.4487452693       -0.0676062361
 C         -0.2588813555       -2.4459825481       -1.7545461423
 C         -1.2276098053       -2.1829416490       -2.8674087090
 C         -0.1463607918       -1.1914098567       -2.5652652312
 H          0.6842001853       -1.0974177621       -3.2502342220
 H         -0.4213739063       -0.2639059985       -2.0886649331
 H         -1.1488069800       -2.7780250943       -3.7648700367
 H         -2.2437583901       -1.9308512731       -2.5997354788
 H          0.4861722541       -3.2129311570       -1.9458148830
