  62
        -98.93844500
 C         -1.9774136605       -1.2456731065        0.7520366484
 C         -1.8574951188        0.1305616064        1.0798929539
 C         -3.0155308404        0.9806389961        0.7770531965
 C         -4.1141802163        0.4200456688        0.2401965523
 C         -5.3641040809        1.1628741482       -0.1331542596
 C         -5.3268742953        1.6255329485       -1.5958775294
 C         -4.0335388592        2.3430723428       -1.9813591069
 H         -3.2059155601        1.6308741783       -1.9392921679
 H         -4.1332052724        2.6572596405       -3.0226748639
 C         -3.6989032986        3.5612065302       -1.1090529025
 H         -4.5910877619        3.8935012769       -0.5772890107
 H         -3.3858015919        4.3806318446       -1.7596549773
 C         -2.5654872116        3.3288316961       -0.1080256810
 H         -1.7136107551        2.8853558089       -0.6303023795
 H         -2.2490743024        4.3015729567        0.2778863718
 C         -2.9058297401        2.4443940301        1.0985008456
 H         -2.0869992601        2.5296221752        1.8188970377
 H         -3.8204609685        2.8060666474        1.5727508043
 H         -5.4379455492        0.7498823818       -2.2396987601
 H         -6.1784247800        2.2855857117       -1.7713973258
 H         -5.4802202448        2.0200387035        0.5274081286
 H         -6.2145716752        0.4927253049        0.0041847087
 O         -4.1941051932       -0.8986667780       -0.0622145332
 C         -3.1218616055       -1.7639658071        0.1457787682
 O         -3.3416267054       -2.9246708629       -0.2428995051
 O         -0.8254968972        0.6173101014        1.6128268373
 C         -0.7568228791       -2.0964258453        1.0561416129
 C          0.2867753703       -1.8838437915       -0.0111311530
 C         -0.0527812045       -1.9154092647       -1.3595055274
 C          0.9058288680       -1.6906620823       -2.3312069739
 C          2.2197562467       -1.4334510632       -1.9795352038
 C          2.5682893475       -1.3966738677       -0.6359890679
 C          1.6030644822       -1.6215636480        0.3378497714
 H          1.8769209720       -1.5735801327        1.3830389849
 N          3.9069135830       -1.1376143588       -0.2756713747
 S          4.5378432588        0.3694323701       -0.6506311133
 O          4.4186146448        0.5853982525       -2.0692033213
 O          5.8764231911        0.3709732064       -0.1076427484
 C          3.5200862599        1.5272409694        0.2449497869
 C          3.9685822263        2.0095646168        1.4584233854
 C          3.1519458797        2.8623071842        2.1830205463
 C          1.9043693505        3.2079452692        1.6873000384
 C          1.4679219005        2.7123504624        0.4690336904
 C          2.2800811438        1.8611879998       -0.2621131067
 H          1.9709478492        1.4561992883       -1.2126262401
 H          0.4920427306        2.9750661105        0.0955261512
 H          1.2631035709        3.8644672525        2.2536952594
 H          3.4873244318        3.2503316486        3.1315391286
 H          4.9470759153        1.7160248124        1.8035335628
 H          4.1034572420       -1.3387490861        0.6953067969
 H          2.9737727645       -1.2394225230       -2.7246386045
 H          0.6284680926       -1.7178337141       -3.3744215224
 H         -1.0784420594       -2.1160921532       -1.6358105186
 H         -0.3478602432       -1.6841180497        1.9931674209
 C         -1.0568715868       -3.5656734353        1.3043818683
 C         -0.7473838849       -4.6471781276        0.3181779913
 C          0.0643000676       -4.5262935575        1.5709646111
 H         -0.0631361669       -5.2669765777        2.3456709914
 H          1.0739436029       -4.1560368207        1.4739526564
 H         -1.4549981226       -5.4566755343        0.2271467620
 H         -0.2855532788       -4.3695059876       -0.6164307068
 H         -1.9597592949       -3.6995230995        1.8902984109
