  62
        -98.94575837
 C         -2.5033763246       -0.0663728265       -0.5735769071
 C         -2.4741516002       -0.8635411955        0.5958354393
 C         -1.9714324592       -2.2314737920        0.4245993563
 C         -1.5161833711       -2.6309955186       -0.7759999163
 C         -0.9346885230       -3.9808389618       -1.0982409835
 C          0.5433183898       -4.1195179249       -0.7066569973
 C          0.8083292794       -4.2951814201        0.7897142822
 H          0.1577019500       -5.0760537071        1.1857498748
 H          1.8378029116       -4.6447618742        0.8911936716
 C          0.6436942572       -3.0117525109        1.6154035867
 H          1.4775622135       -2.9245698011        2.3168014380
 H          0.6896789476       -2.1439234781        0.9537944551
 C         -0.6406260995       -2.9410743908        2.4412357324
 H         -0.6172519847       -3.7043490988        3.2233300816
 H         -0.6810232838       -1.9612003441        2.9237425540
 C         -1.9299245921       -3.1203279549        1.6318992835
 H         -2.7723163029       -2.8432831682        2.2712253390
 H         -2.0446507868       -4.1626309683        1.3341910925
 H          0.9388081668       -4.9929285167       -1.2310513113
 H          1.0805190891       -3.2381623721       -1.0671197970
 H         -1.5195544919       -4.7617807746       -0.6105972811
 H         -1.0199549453       -4.1057009440       -2.1799481569
 O         -1.5499450075       -1.8310442052       -1.8757585486
 C         -2.0264241750       -0.5344134572       -1.7979969039
 O         -1.9924938700        0.0912243040       -2.8800543682
 O         -2.8551029827       -0.4643534279        1.7277792691
 C         -2.9122460546        1.3972133059       -0.4942693124
 C         -1.8678525507        2.0873875188        0.3507053374
 C         -2.1315518322        2.7496857749        1.5411014516
 C         -1.0886497260        3.2451812343        2.3066779156
 C          0.2260978522        3.0715222893        1.9167318089
 C          0.4975016678        2.4301958628        0.7117026922
 C         -0.5482716763        1.9757893458       -0.0717855321
 H         -0.3296196934        1.4828478176       -1.0094320785
 N          1.8159547776        2.2378897350        0.2679445390
 S          2.1455559760        0.8680616584       -0.6671366127
 O          1.9764183390        1.2186195096       -2.0564084433
 O          1.3971015802       -0.2703429143       -0.1896878035
 C          3.8809611956        0.6481166553       -0.3194280393
 C          4.2775773818       -0.3549905904        0.5439790914
 C          5.6268892745       -0.5011880490        0.8268095833
 C          6.5502144360        0.3561881683        0.2479022604
 C          6.1367391760        1.3586511641       -0.6173954322
 C          4.7898101256        1.5088566612       -0.9063488583
 H          4.4219194052        2.2647372848       -1.5805102572
 H          6.8577467930        2.0215335298       -1.0677544501
 H          7.5992598171        0.2404109177        0.4698679333
 H          5.9507484178       -1.2820471579        1.4957684224
 H          3.5223971932       -0.9996831746        0.9648837903
 H          2.5065067617        2.3837344128        0.9912209205
 H          1.0367147059        3.4258825595        2.5349899552
 H         -1.3041207482        3.7512398310        3.2355767177
 H         -3.1482766402        2.8580371081        1.8807562127
 H         -2.8418903620        1.7893856616       -1.5193342895
 C         -4.3296141066        1.5650734259        0.0047073932
 C         -5.0809683286        2.8246962379       -0.3024238637
 C         -5.4557113069        1.5434190978       -0.9829267269
 H         -6.3780314473        1.0583034724       -0.7010499326
 H         -5.1995925813        1.4217306809       -2.0256568545
 H         -5.7505326000        3.2216266032        0.4452881122
 H         -4.5732991931        3.5778631696       -0.8860252834
 H         -4.4962288987        1.0873439733        0.9624053558
