  62
        -98.94597964
 C          1.6093889175        1.2987221457        0.3703465233
 C          1.5416617354        0.2539461273       -0.5826600595
 C          2.4113539325       -0.9053067764       -0.3258153279
 C          3.1668558499       -0.9349532205        0.7867581459
 C          4.1253387509       -2.0320824072        1.1463769983
 C          5.5336561043       -1.7346738249        0.6125597303
 C          5.5627972396       -1.3276424967       -0.8607618502
 H          5.0570275199       -0.3661581724       -0.9756955012
 H          6.6088059080       -1.1739913150       -1.1347409160
 C          4.9300877246       -2.3499665265       -1.8153912240
 H          5.5843625614       -2.4715107869       -2.6812855826
 H          4.8600336230       -3.3215018391       -1.3248424918
 C          3.5532730245       -1.9524216177       -2.3511394024
 H          3.5983456085       -0.9400035130       -2.7605667822
 H          3.3016982021       -2.6266013491       -3.1743219941
 C          2.4006229103       -2.0150379364       -1.3406531919
 H          1.4656256370       -1.9073840885       -1.8987073081
 H          2.3980699328       -2.9917882183       -0.8520178231
 H          5.9625284472       -0.9200123025        1.2005912588
 H          6.1529301984       -2.6214534189        0.7590379846
 H          4.1682354288       -2.1081799403        2.2340834071
 H          3.7638563491       -2.9744366846        0.7394312818
 O          3.1756054668        0.0692085797        1.6988596249
 C          2.4127908664        1.2075027914        1.5117204740
 O          2.5305364239        2.0570990006        2.4158435832
 O          0.8045034020        0.2692267806       -1.6039124618
 C          0.7706235508        2.5626779063        0.2398778949
 C         -0.6666599021        2.1832581886        0.4978356242
 C         -1.1524679080        2.1618222695        1.8020264565
 C         -2.4346322710        1.7190384659        2.0714498194
 C         -3.2480312847        1.2576488461        1.0506377161
 C         -2.7633539641        1.2601730130       -0.2502261962
 C         -1.4943638295        1.7494980792       -0.5256694286
 H         -1.1314801563        1.7362568478       -1.5406853809
 N         -3.5481683384        0.7135805979       -1.2831244346
 S         -4.2014785220       -0.7979380974       -0.9726937149
 O         -4.2367692925       -1.4771856581       -2.2495733744
 O         -5.4799492211       -0.6358890980       -0.3234253872
 C         -3.0768937527       -1.6195728409        0.1493198935
 C         -1.7283367183       -1.6638635475       -0.1453565743
 C         -0.8712791909       -2.2916054727        0.7443151034
 C         -1.3708216643       -2.8718198357        1.8996387609
 C         -2.7284587340       -2.8289675924        2.1753717087
 C         -3.5895101822       -2.1936063670        1.2955704111
 H         -4.6497192147       -2.1234424966        1.4774983947
 H         -3.1160252448       -3.2812188910        3.0739702217
 H         -0.6952713233       -3.3559111514        2.5872221759
 H          0.1863324225       -2.3092204576        0.5320897604
 H         -1.3439203562       -1.2016928194       -1.0412822302
 H         -3.0782616561        0.7151675057       -2.1777256574
 H         -4.2413996283        0.8844847940        1.2422523133
 H         -2.8003398781        1.7175430610        3.0868059610
 H         -0.5035906486        2.4809551000        2.6054633814
 H          1.0998168372        3.2263970765        1.0495835556
 C          0.9904208779        3.2653384369       -1.0835671085
 C          0.5080943161        4.6741767197       -1.2490731358
 C          1.9767125087        4.3901564943       -1.1594811178
 H          2.5773672165        4.4894179103       -2.0513459596
 H          2.4959868646        4.6629614195       -0.2522429974
 H          0.0984683029        4.9718873018       -2.2022012329
 H          0.0290005237        5.1387540472       -0.4005062582
 H          0.9314493786        2.6074288377       -1.9411150777
