  62
        -98.93727429
 C          2.2894945701        0.3735495995       -0.3557718399
 C          3.5087387801        0.7388298692       -0.9821255502
 C          4.7157744302        0.6655039995       -0.1492480703
 C          4.5992520203        0.3095926201        1.1428100099
 C          5.7498706903        0.1327708205        2.0898246399
 C          6.2626623602       -1.3142842395        2.0753026306
 C          6.5109084301       -1.8689415802        0.6724659608
 H          6.8963653500       -2.8842662002        0.7878986413
 H          5.5568127100       -1.9470164904        0.1458073210
 C          7.4904087401       -1.0431527107       -0.1732851396
 H          8.0761858802       -0.3881757204        0.4725902800
 H          8.1887951900       -1.7238433110       -0.6645772794
 C          6.8314131600       -0.2103332612       -1.2743758800
 H          6.1715537099       -0.8463705215       -1.8701814196
 H          7.6171941100        0.1579082284       -1.9392452602
 C          6.0276726701        1.0061850791       -0.7983348705
 H          6.6412299202        1.6142674494       -0.1306428009
 H          5.7785072601        1.6055987887       -1.6788973408
 H          5.5220569902       -1.9488572092        2.5675858410
 H          7.1868077803       -1.3585646393        2.6543504705
 H          5.4075236804        0.3778596611        3.0964929998
 H          6.5503299303        0.8155916204        1.8116240795
 O          3.4074968103        0.0255315005        1.7254433502
 C          2.2220914202        0.0464071202        0.9993197802
 O          1.2153306803       -0.2322792794        1.6760535705
 O          3.5818562800        1.1143009686       -2.1828648304
 C          1.0303831801        0.4152902992       -1.2013248398
 C         -0.0786982998        1.1355523096       -0.4779224001
 C          0.1094893903        2.4710537398       -0.1283415508
 C         -0.8815927496        3.1785144902        0.5224068189
 C         -2.0932288696        2.5777463004        0.8170858493
 C         -2.2887597297        1.2451816402        0.4777897200
 C         -1.2830375698        0.5310242599       -0.1592637697
 H         -1.4581911199       -0.5070362802       -0.3882690992
 N         -3.4972586098        0.5967918605        0.7758576904
 S         -4.0848462299       -0.5338613600       -0.3303357290
 O         -3.5462903300       -1.8322271699       -0.0112887884
 O         -3.8631933300       -0.0661636307       -1.6802838492
 C         -5.8266335799       -0.4932536397        0.0536397612
 C         -6.2983523498       -1.2529127692        1.1075762916
 C         -7.6464464298       -1.1947538889        1.4239138417
 C         -8.4952844798       -0.3824520293        0.6865952613
 C         -8.0076220499        0.3731770402       -0.3690717391
 C         -6.6604023899        0.3205615599       -0.6901812392
 H         -6.2379164299        0.8826456395       -1.5074965395
 H         -8.6702697299        1.0012300100       -0.9423966094
 H         -9.5441051498       -0.3403916491        0.9345032614
 H         -8.0298443098       -1.7828360185        2.2420710920
 H         -5.6026685598       -1.8753445690        1.6461042118
 H         -4.2184107797        1.2267356507        1.0987248402
 H         -2.8736322896        3.1317958607        1.3164853391
 H         -0.7165715895        4.2110547803        0.7917295684
 H          1.0520681303        2.9440967396       -0.3701791011
 H          1.3100253800        1.0284359888       -2.0756934802
 C          0.6023570099       -0.9388505310       -1.7465885191
 C          1.6069282598       -2.0130059012       -2.0339693987
 C          0.6268896599       -2.1840718006       -0.9141352985
 H         -0.1808141701       -2.8922099006       -1.0336860381
 H          0.9798973800       -2.0993062401        0.1017585914
 H          1.4822717197       -2.6082520517       -2.9259556984
 H          2.6380548899       -1.8115815212       -1.7817953189
 H         -0.2194407001       -0.8476358413       -2.4520984491
