  62
        -98.94533016
 C         -1.5644448004       -0.9812409640        0.3279025803
 C         -2.8848038439       -1.1337663541        0.8190528791
 C         -3.9624291037       -0.7895996637       -0.1141168926
 C         -3.6597393691       -0.3615835928       -1.3531783653
 C         -4.6467134478        0.0125518229       -2.4256060509
 C         -5.1647777590        1.4534884598       -2.3208139616
 C         -6.1433368911        1.7112964784       -1.1742322971
 H         -6.5902304975        2.6919512921       -1.3494091494
 H         -6.9473960165        0.9756954205       -1.2122528453
 C         -5.5014871812        1.7041384200        0.2202573818
 H         -4.4187549838        1.8156617020        0.1233850080
 H         -5.8604041397        2.5640028663        0.7904836576
 C         -5.7996758190        0.4544929056        1.0489129571
 H         -6.8691201629        0.4053449796        1.2652724047
 H         -5.2674387663        0.5392799900        1.9997531391
 C         -5.3745867958       -0.8610129548        0.3835172395
 H         -5.4234722883       -1.6552116632        1.1324032272
 H         -6.0538360491       -1.1065203627       -0.4323953823
 H         -4.3086481327        2.1262479328       -2.2284140291
 H         -5.6701861867        1.6872923279       -3.2607712049
 H         -4.1257101697       -0.0968194501       -3.3791970799
 H         -5.4884288101       -0.6803222699       -2.4075377814
 O         -2.3793123569       -0.2363214718       -1.7911707562
 C         -1.3012010023       -0.5191352523       -0.9620451134
 O         -0.1914878499       -0.3370776769       -1.4967221821
 H          2.1003155351       -0.3435683568        0.6278467857
 C          1.5323053230        0.3489290326        1.2222624379
 C          0.2549542778        0.0169119597        1.6417895914
 C         -0.4513789698        0.9321120465        2.4196697214
 C          0.1107416638        2.1451345332        2.7654886658
 C          1.3819378369        2.4791333240        2.3283439773
 C          2.0915692799        1.5779895627        1.5463984608
 N          3.3906087229        1.8702757111        1.0901153063
 S          3.6757204905        1.7718890555       -0.5671911420
 O          4.8903168127        2.5387445434       -0.7604932478
 O          2.5271122616        2.2143946538       -1.3223028655
 C          4.0337946257        0.0553771473       -0.8674976916
 C          3.1821509483       -0.7049655422       -1.6444654059
 C          3.4927352147       -2.0395734122       -1.8580424230
 C          4.6370915749       -2.5847728742       -1.2962596790
 C          5.4816631854       -1.8044309312       -0.5205088051
 C          5.1806651307       -0.4696228768       -0.3041818417
 H          5.8113092621        0.1748998669        0.2850856002
 H          6.3694472584       -2.2329209374       -0.0841272965
 H          4.8690663032       -3.6249661818       -1.4637227502
 H          2.8311265562       -2.6460068727       -2.4566210699
 H          2.2815387969       -0.2569253776       -2.0361831791
 H          3.7611526608        2.7409669791        1.4460773729
 H          1.8192063276        3.4316526193        2.5885894553
 H         -0.4458656637        2.8425424557        3.3736152394
 H         -1.4492881381        0.6759430102        2.7483687382
 C         -0.4090612680       -1.2856640135        1.2674838145
 H         -0.8762163641       -1.6984287680        2.1731321724
 C          0.5383199379       -2.3140273245        0.6891872632
 C          1.5132312789       -3.0129466165        1.5876915318
 C          0.3465807433       -3.7623843935        1.0197137349
 H          0.5282665272       -4.4940527676        0.2471383610
 H         -0.4672161445       -4.0204630880        1.6815599158
 H          1.4910846315       -2.7611718385        2.6370656800
 H          2.4998120521       -3.2272486555        1.2056024586
 H          0.8608924215       -2.0742220022       -0.3164883232
 O         -3.1493369868       -1.5412357803        1.9816967209
