  62
        -98.93711572
 C         -1.8837344902       -0.3724338699       -0.7821796997
 C         -2.3135736702       -0.1605540109        0.5483691104
 C         -3.7638829702       -0.2789387611        0.7900568204
 C         -4.5765036402       -0.5833781404       -0.2367896799
 C         -6.0753304902       -0.7052331804       -0.2150196799
 C         -6.7358409703        0.6270573399       -0.6078623889
 C         -6.9659116003        1.5975120090        0.5499416319
 H         -7.7666461002        1.2136141085        1.1855999416
 H         -7.3129408803        2.5398092093        0.1197393326
 C         -5.7396574402        1.8771532583        1.4227713621
 H         -5.9105028702        2.8193053879        1.9472270428
 H         -4.8611104303        2.0141881988        0.7898259522
 C         -5.4710453102        0.7744662475        2.4577733612
 H         -6.3397760402        0.1186380875        2.5128975707
 H         -5.3614546302        1.2255483068        3.4461681716
 C         -4.2068491802       -0.0623188723        2.2113917505
 H         -4.3264786402       -1.0393526526        2.6916228798
 H         -3.3509300802        0.4184416174        2.6954567009
 H         -7.7026132803        0.4160952203       -1.0695383890
 H         -6.1080089603        1.1006159205       -1.3670071485
 H         -6.4209430902       -1.0446630012        0.7568435398
 H         -6.3366735302       -1.4563385698       -0.9635011205
 O         -4.1175541902       -0.7809770394       -1.5042923400
 C         -2.7733427003       -0.6806541291       -1.8099381900
 O         -2.4977543703       -0.8897402281       -3.0094919801
 O         -1.5280755302        0.1162566683        1.4919417006
 C         -0.4113960002       -0.2682071896       -1.1287478197
 C          0.4143922898       -1.2478744102       -0.3291121405
 C         -0.1074891302       -2.4979190805       -0.0088089314
 C          0.6356740698       -3.4115072610        0.7128814079
 C          1.9277853298       -3.1110952113        1.1056395981
 C          2.4689285698       -1.8770239810        0.7703208190
 C          1.7107753998       -0.9516436305        0.0658678498
 H          2.1494084898        0.0011045197       -0.1809606395
 N          3.7790510698       -1.5399515213        1.1449028793
 S          4.7810188798       -0.7970598604        0.0272820898
 O          4.4591559498       -1.1948506894       -1.3232681005
 O          6.1229330298       -1.1045111708        0.4762598996
 C          4.5000013598        0.9479884094        0.2390137612
 C          4.2868912298        1.4484336584        1.5082690216
 C          4.1214114697        2.8148889883        1.6685666627
 C          4.1814645897        3.6545801091        0.5664768533
 C          4.4017349097        3.1369038001       -0.7005017871
 C          4.5627937597        1.7701558603       -0.8684186581
 H          4.7230601797        1.3247520010       -1.8372190185
 H          4.4467911097        3.7900096908       -1.5576139766
 H          4.0540570897        4.7179658490        0.6950261842
 H          3.9463519398        3.2208557075        2.6519029530
 H          4.2439847898        0.7683536977        2.3424412311
 H          4.2699698898       -2.2596599517        1.6557862387
 H          2.5119589798       -3.8262432417        1.6647899075
 H          0.2090200598       -4.3711649312        0.9638097171
 H         -1.1116401802       -2.7439413502       -0.3267921516
 H         -0.3275731803       -0.5496665088       -2.1897601399
 C          0.0528594797        1.1662971203       -0.9682891186
 C          1.0986673797        1.7388318910       -1.8754448681
 C         -0.3301921303        2.1679393411       -2.0146709278
 H         -0.6034104703        3.1641220408       -1.7011625170
 H         -0.8952259203        1.8053609018       -2.8615125380
 H          1.8057181297        2.4427295507       -1.4626557476
 H          1.5127375097        1.0921659516       -2.6349845986
 H          0.0394042997        1.4905101195        0.0659709517
