  62
        -98.93892956
 C          1.9849873137        1.5059459261       -0.3546902793
 C          2.9066835443        1.2839695787        0.7023980595
 C          4.0699407851        0.4431248145        0.3992875810
 C          4.2041400692       -0.0606668732       -0.8405780634
 C          5.2985424141       -0.9914150878       -1.2750555782
 C          4.8868633890       -2.4577025482       -1.0821786373
 C          4.3135982497       -2.7622498234        0.3021288989
 H          3.3648753679       -2.2326263093        0.4196276555
 H          4.0882440494       -3.8306270842        0.3321765135
 C          5.2445500013       -2.4019080329        1.4685802258
 H          5.2459467960       -3.2282547982        2.1824615295
 H          6.2660333404       -2.2865321440        1.1044131675
 C          4.8368226855       -1.1457715531        2.2408086835
 H          5.4228567327       -1.1084710743        3.1629308905
 H          3.7834296349       -1.2156927110        2.5241967550
 C          5.0500444758        0.1850241297        1.5086338979
 H          6.0753227120        0.2414166412        1.1374947825
 H          4.9000652798        0.9904964112        2.2333838858
 H          5.7592125514       -3.0882806780       -1.2638002062
 H          4.1274692053       -2.7050435917       -1.8280322848
 H          5.5002416974       -0.8161206253       -2.3331472185
 H          6.1988946554       -0.7771678327       -0.7024163388
 O          3.3181553106        0.1894310450       -1.8353333620
 C          2.1763794341        0.9628359588       -1.6256503711
 O          1.4708308112        1.0794532972       -2.6426567870
 O          2.7577549728        1.7781000037        1.8523284147
 C          0.7625097304        2.3282375058        0.0156275306
 C         -0.2114931755        1.4663168554        0.7805190507
 C         -0.7611295634        1.9120310389        1.9776028567
 C         -1.6315207969        1.1140363388        2.6979694464
 C         -1.9867449630       -0.1355975960        2.2237530708
 C         -1.4474087911       -0.5889291809        1.0256344642
 C         -0.5579432897        0.2045223899        0.3158082908
 H         -0.1385188009       -0.1682481267       -0.6075947487
 N         -1.8093982438       -1.8488663863        0.4948784952
 S         -2.8165044040       -1.7885344051       -0.8448737501
 O         -3.1493537718       -3.1634802466       -1.1434623087
 O         -2.1855848174       -1.0265476097       -1.8888607014
 C         -4.2647537251       -0.9347866259       -0.2442693994
 C         -4.2551380580        0.4453492595       -0.2013285098
 C         -5.3447799039        1.1050295583        0.3451116640
 C         -6.4170927968        0.3776956508        0.8386457289
 C         -6.4122499279       -1.0081153629        0.7870043932
 C         -5.3238100743       -1.6736786022        0.2461988644
 H         -5.2768270542       -2.7488608069        0.1816776384
 H         -7.2490804773       -1.5707944461        1.1683118202
 H         -7.2622548553        0.8951531858        1.2642153119
 H         -5.3485508283        2.1823283293        0.3838674881
 H         -3.4068980315        0.9777258695       -0.6006030766
 H         -2.2185614027       -2.4693150438        1.1810858095
 H         -2.6687643118       -0.7626789910        2.7783667337
 H         -2.0401141041        1.4689467494        3.6313279936
 H         -0.4811447341        2.8851798685        2.3525850278
 H          1.1334059080        3.0915700349        0.7198571518
 C          0.1101033287        3.0711316162       -1.1379301773
 C         -1.0540306082        2.5405789157       -1.9130085964
 C         -1.2497295726        3.6832442032       -0.9648964830
 H         -1.4288972248        4.6655390921       -1.3748109139
 H         -1.7701071135        3.4856481483       -0.0395681042
 H         -1.0692676304        2.7329677880       -2.9751308502
 H         -1.4381735269        1.5633733905       -1.6635930149
 H          0.8370394680        3.6425963175       -1.7061400415
