  62
        -98.94037163
 C          1.4742545623        1.2253216873        0.2765190045
 C          1.5731359388       -0.1873466290        0.3735326179
 C          2.7690270353       -0.8021707555       -0.2149542568
 C          3.6874591235       -0.0135287080       -0.8015236731
 C          4.9827799156       -0.4952926593       -1.3868128345
 C          6.1060508404       -0.4770580197       -0.3405952987
 C          5.7298706505       -1.1443849083        0.9824096711
 H          6.6073632199       -1.0977310655        1.6311389299
 H          4.9429367141       -0.5601501439        1.4649471218
 C          5.2682838515       -2.6024284741        0.8496596847
 H          5.5832822641       -3.0040145450       -0.1141161779
 H          5.7583784371       -3.1965763055        1.6239206050
 C          3.7613821813       -2.8070346107        1.0163024980
 H          3.4267031558       -2.3257543315        1.9386741368
 H          3.5744173602       -3.8791932643        1.1195993668
 C          2.8882789898       -2.2980417438       -0.1373861562
 H          3.2558933193       -2.7030443409       -1.0823170771
 H          1.8715913859       -2.6657636476        0.0265711146
 H          6.9810308018       -0.9732364605       -0.7645492849
 H          6.3717059755        0.5627163075       -0.1358337479
 H          4.8478838506       -1.5041728364       -1.7719901086
 H          5.2557419826        0.1658511325       -2.2109423754
 O          3.5560304965        1.3331753801       -0.8863414804
 C          2.4445708376        1.9921956193       -0.3684010952
 O          2.4662191896        3.2225030704       -0.5530017101
 H         -2.2394579847        0.7297697599        1.1021465476
 C         -2.0843016877        1.1807278081        0.1339315393
 C         -0.8831693880        1.8087880671       -0.1564099149
 C         -0.7071046934        2.3766292541       -1.4154861561
 C         -1.7211763056        2.3247412664       -2.3531365669
 C         -2.9182481990        1.6926374512       -2.0626314042
 C         -3.0994036382        1.1144623191       -0.8119971479
 N         -4.3016208132        0.4728457101       -0.4889041733
 S         -4.3146154460       -0.8562478213        0.5212112688
 O         -5.5645068511       -1.5189107410        0.2120562725
 O         -4.1556521984       -0.4378798848        1.8916341718
 C         -2.9514821762       -1.8926519337        0.0216035072
 C         -2.7821525516       -2.1654362595       -1.3215224739
 C         -1.7491134582       -3.0023687604       -1.7081539359
 C         -0.9149255825       -3.5590358771       -0.7508066249
 C         -1.1020472413       -3.2807305293        0.5929337211
 C         -2.1280925991       -2.4364800318        0.9843359809
 H         -2.2943344353       -2.1827311696        2.0188329726
 H         -0.4479318392       -3.7041470762        1.3376046752
 H         -0.1114328615       -4.2115583185       -1.0558365993
 H         -1.5960770741       -3.2180563711       -2.7536353946
 H         -3.4505753828       -1.7285921232       -2.0457023999
 H         -4.9630732992        0.3851863941       -1.2458352424
 H         -3.7075012436        1.6483445312       -2.7974416576
 H         -1.5766370414        2.7744035977       -3.3238732720
 H          0.2318034359        2.8587691659       -1.6446120573
 C          0.2200678870        1.8425528640        0.8694264878
 H         -0.0740357533        1.1600601703        1.6833320379
 C          0.4312058009        3.2162720613        1.4874638208
 C         -0.1829887048        4.4716891756        0.9522727999
 C         -0.6983809777        3.8737676992        2.2246274091
 H         -0.4890723744        4.3736280450        3.1582909625
 H         -1.6604075793        3.3829333936        2.1929356962
 H          0.4065929918        5.3743202147        1.0024582520
 H         -0.8033238471        4.4067685670        0.0725560472
 H          1.4193354056        3.3186873196        1.9235883782
 O          0.6982414398       -0.8976710755        0.9350016849
