  62
        -98.93808889
 C          1.1876256640        1.0682815765        0.1987593433
 C          1.6940581085        0.0005285687        0.9781258264
 C          2.7508408220       -0.8283067422        0.3741026675
 C          3.1298868379       -0.5874478291       -0.8942798146
 C          4.1317840422       -1.2900959203       -1.7867521886
 C          5.1451339947       -2.2713518018       -1.2031830413
 C          6.2002681420       -1.6388171010       -0.2961531950
 H          6.8020797283       -2.4405372495        0.1372167119
 H          6.8605131999       -1.0214937443       -0.9104813532
 C          5.6605996999       -0.7587809824        0.8283743594
 H          6.5155132987       -0.3718063897        1.3893533677
 H          5.1397478614        0.1010450624        0.4019615330
 C          4.7335965141       -1.4597875170        1.8194519768
 H          5.2278425962       -2.3463812262        2.2210738666
 H          4.5573280590       -0.7699398573        2.6490986211
 C          3.3599302042       -1.8740129948        1.2630899941
 H          3.4107105909       -2.8312771127        0.7489519177
 H          2.6746291673       -1.9945503962        2.1074080138
 H          5.6665755574       -2.7205192473       -2.0529435880
 H          4.6321538533       -3.0785446485       -0.6883435373
 H          3.5345170718       -1.8157881391       -2.5406018018
 H          4.6667079960       -0.4957842826       -2.3175299436
 O          2.5541179991        0.4015803978       -1.6378696644
 C          1.5764594805        1.2440670011       -1.1285522987
 O          1.1552776579        2.0784851231       -1.9509688383
 H         -0.9864420367       -0.1267078052       -0.4480086431
 C         -1.5453710546        0.7755644150       -0.6424126267
 C         -1.1028522613        1.9785149565       -0.1078114970
 C         -1.8076550117        3.1353264152       -0.4126879177
 C         -2.9197653370        3.0778524432       -1.2358102801
 C         -3.3650432143        1.8749948805       -1.7521601219
 C         -2.6632325023        0.7114452251       -1.4557858062
 N         -3.0686259746       -0.5319383537       -1.9607040810
 S         -2.7903541888       -1.9245250242       -1.0840126002
 O         -1.4015280760       -2.3059293120       -1.1637277685
 O         -3.7352858348       -2.8777258062       -1.6269070095
 C         -3.2439522994       -1.5180197060        0.5934801277
 C         -2.2908570811       -1.4646867407        1.5894102086
 C         -2.6783959885       -1.1006475370        2.8695829709
 C         -4.0057586751       -0.8008777674        3.1317775410
 C         -4.9548329454       -0.8699598843        2.1227791581
 C         -4.5722905998       -1.2288374357        0.8411400142
 H         -5.2824886633       -1.3026006624        0.0338112810
 H         -5.9876730514       -0.6417830742        2.3306623145
 H         -4.3008591250       -0.5142850882        4.1288087581
 H         -1.9326696368       -1.0460742224        3.6468612140
 H         -1.2623422798       -1.6970344373        1.3596301497
 H         -3.9582472471       -0.5404468888       -2.4360763752
 H         -4.2339158459        1.8344473860       -2.3907087891
 H         -3.4525129162        3.9857676889       -1.4744816491
 H         -1.4775502961        4.0850718312       -0.0256164587
 C          0.0964284055        1.9293202864        0.8065368990
 H         -0.2092845750        1.3704192493        1.7084474535
 C          0.5577826030        3.2975476955        1.2871448895
 C          2.0066620727        3.5863174438        1.5400862730
 C          1.2985621177        4.2508943275        0.3996467886
 H          1.0765630802        5.3050164273        0.4809959846
 H          1.5197543619        3.9244827842       -0.6040671677
 H          2.2688755490        4.1795687856        2.4034058790
 H          2.7204581161        2.8077403638        1.3115346180
 H         -0.1418193967        3.7371547527        1.9912458501
 O          1.2696258754       -0.2614067771        2.1361293411
