  62
        -98.94683619
 C         -1.7645957840       -1.3730407905       -0.0511801013
 C         -2.8907535523       -0.7138639297        0.5005975502
 C         -3.3214160407        0.5162948003       -0.1743639308
 C         -2.6311552241        0.9562560469       -1.2418080680
 C         -2.9312279713        2.2169485843       -1.9988429814
 C         -2.1298086142        3.4025498188       -1.4450166573
 C         -2.2169020977        3.5545773369        0.0737024680
 H         -1.6998745392        2.7130799852        0.5423590291
 H         -1.6526719810        4.4513699230        0.3413462094
 C         -3.6456720326        3.6658171556        0.6244705067
 H         -3.6689039665        4.4649061476        1.3685739065
 H         -4.3296274756        3.9487502820       -0.1769090796
 C         -4.1663474258        2.4030308364        1.3135475246
 H         -3.4276864388        2.0560115535        2.0411695868
 H         -5.0726272090        2.6659924435        1.8660612080
 C         -4.5172842955        1.2319603275        0.3871394794
 H         -5.1723662104        1.5797226207       -0.4143564985
 H         -5.0608962293        0.4902379395        0.9799264416
 H         -1.0775274450        3.2633993691       -1.7045877637
 H         -2.4856018808        4.3155767361       -1.9270661695
 H         -2.6580821912        2.0634568798       -3.0444827450
 H         -3.9977745972        2.4258539341       -1.9383031569
 O         -1.5486718695        0.3086469456       -1.7358544201
 C         -1.0619371983       -0.8409382371       -1.1326842471
 O         -0.0253524937       -1.2849713988       -1.6626741262
 O         -3.5059801890       -1.1357229572        1.5180438979
 C         -1.2455934534       -2.6090303069        0.6638125066
 C          0.2366651403       -2.4600207184        0.9007646095
 C          1.1850170755       -3.4179657342        0.5679208590
 C          2.5309178972       -3.1804869068        0.7925134026
 C          2.9610295242       -1.9773937094        1.3207831654
 C          2.0182219614       -1.0125039093        1.6561300062
 C          0.6713070899       -1.2731892696        1.4790178787
 H         -0.0482189494       -0.5127563013        1.7476545992
 N          2.3917825403        0.2578433651        2.1492420361
 S          2.1003667875        1.5411648095        1.1040615155
 O          2.5643277172        2.7183993930        1.8079068870
 O          0.7187576876        1.5409176323        0.7026363668
 C          3.1869325755        1.2152879019       -0.2731960756
 C          4.4270479721        1.8260776212       -0.2864638397
 C          5.3192010177        1.5151959237       -1.2991401708
 C          4.9622382130        0.5918461891       -2.2708609620
 C          3.7163213073       -0.0145113929       -2.2400389181
 C          2.8144585720        0.2948489600       -1.2321296370
 H          1.8382145126       -0.1644933044       -1.1956892127
 H          3.4309656895       -0.7336559345       -2.9910744515
 H          5.6576291926        0.3434695203       -3.0571510215
 H          6.2875508153        1.9884311538       -1.3253649424
 H          4.6581151517        2.5372858126        0.4903219269
 H          3.3537814114        0.3044819261        2.4587058012
 H          4.0127172145       -1.7795459030        1.4648551793
 H          3.2563447383       -3.9346865077        0.5283777422
 H          0.8749648200       -4.3437870913        0.1120237738
 H         -1.7480987449       -2.5831194323        1.6461399350
 C         -1.6324003305       -3.9297477545        0.0157988467
 C         -2.8234240680       -4.0280384415       -0.8887118760
 C         -1.4432426892       -4.1878554356       -1.4480281745
 H         -1.1292737416       -5.1739302197       -1.7577815560
 H         -1.0334585581       -3.3885498456       -2.0445883005
 H         -3.4549374563       -4.9004239318       -0.8112193600
 H         -3.3617920165       -3.1170500303       -1.1077731809
 H         -1.4713043384       -4.7709362299        0.6831060330
