  62
        -98.94350265
 C         -1.5234363200       -1.4561525205        0.0430337391
 C         -2.0160460205       -0.5242385015        0.9883577998
 C         -3.0841886009        0.3664103684        0.5159264704
 C         -3.5384257707        0.2378663892       -0.7441334298
 C         -4.5763146111        1.1212309892       -1.3730387992
 C         -3.9267597015        2.3149828500       -2.0876821082
 C         -2.8893335120        3.0524580599       -1.2404286375
 H         -2.0431832817        2.3859850901       -1.0552731879
 H         -2.5147317923        3.8866389205       -1.8379690768
 C         -3.4209463323        3.5799880385        0.0998400629
 H         -3.0651675928        4.6031846286        0.2380162737
 H         -4.5106124123        3.6170469081        0.0759254928
 C         -2.9667622121        2.7789082878        1.3215437923
 H         -3.2104611524        3.3576067070        2.2162221327
 H         -1.8810812220        2.6547376883        1.2938252623
 C         -3.6036084414        1.3927780674        1.4827623211
 H         -3.3466760513        1.0224833067        2.4792740109
 H         -4.6899971815        1.4750702069        1.4153701811
 H         -3.4330313913        1.9505003910       -2.9918213084
 H         -4.7136512518        3.0092261999       -2.3879397077
 H         -5.1341814807        0.5325781595       -2.1031546697
 H         -5.2619951313        1.4730471182       -0.6047502189
 O         -3.0567030302       -0.6846797199       -1.6164209305
 C         -2.0191640698       -1.5363008097       -1.2579720810
 O         -1.6399098494       -2.2951782388       -2.1696158016
 H          0.3909640294        0.0066535408       -0.5384061096
 C          1.1216130198       -0.7657453787       -0.7474106102
 C          0.8694406403       -2.0678495491       -0.3359499712
 C          1.8286007908       -3.0367217584       -0.6080065219
 C          2.9990049707       -2.7081090574       -1.2708327115
 C          3.2445613502       -1.4078300469       -1.6749475805
 C          2.2905361397       -0.4354800476       -1.4151098998
 N          2.5570610691        0.9091119628       -1.7831555587
 S          3.5311569786        1.7011113124       -0.6676317680
 O          3.5340992380        3.0936296527       -1.0540713469
 O          4.8094884189        1.0392549430       -0.6346644184
 C          2.6817523486        1.4884420208        0.8853886418
 C          1.7488789781        2.4304448500        1.2711462724
 C          1.0058114381        2.2067827988        2.4188711922
 C          1.1916665886        1.0414080283        3.1461595613
 C          2.1313928991        0.1053147090        2.7441497406
 C          2.8851030891        0.3263889403        1.6027208909
 H          3.6241858394       -0.3788294991        1.2579749404
 H          2.2704206694       -0.8018419313        3.3099805399
 H          0.5911409486        0.8569074473        4.0222370511
 H          0.2753148877        2.9331653782        2.7383150727
 H          1.6287174277        3.3201787304        0.6727402931
 H          1.7144625388        1.4534944725       -1.9087328983
 H          4.1589227401       -1.1278142161       -2.1715935402
 H          3.7318977311       -3.4743667869       -1.4719126421
 H          1.6594575513       -4.0541636588       -0.2950441927
 C         -0.3826265396       -2.3644349803        0.4536691784
 H         -0.1751143498       -2.1051731811        1.5040119387
 C         -0.7981551289       -3.8201306905        0.3871883373
 C         -0.2769593785       -4.8073155710        1.3875017665
 C         -1.7047208787       -4.3584491517        1.4523927468
 H         -2.4813755784       -5.0520396619        1.1672429561
 H         -1.9934352891       -3.6824141525        2.2440192273
 H         -0.0735626080       -5.8153028607        1.0583985457
 H          0.3996201212       -4.4442677413        2.1463203069
 H         -0.9654490387       -4.1584964497       -0.6290412530
 O         -1.5755065106       -0.4356713022        2.1643243599
