  62
        -98.93819184
 C          2.5243342938        1.3422079592        0.1116809122
 C          2.6356614390        0.3983433083       -0.9352409271
 C          3.6128991109       -0.6907032793       -0.7381125552
 C          4.3238640782       -0.7416992262        0.4008335640
 C          5.3226929672       -1.7849263823        0.8191859729
 C          4.6460446695       -2.8807617161        1.6600089033
 C          4.0401663854       -4.0290436729        0.8540844192
 H          4.8444615960       -4.6352400703        0.4319350630
 H          3.4854606511       -4.6598874144        1.5524688014
 C          3.0998906279       -3.6084315922       -0.2785862477
 H          2.4381513163       -2.8112767186        0.0672644058
 H          2.4662553274       -4.4634772279       -0.5235969774
 C          3.8446273325       -3.1617937123       -1.5456518939
 H          4.8936607038       -3.4444542004       -1.4603577774
 H          3.4471939026       -3.7033918356       -2.4067500090
 C          3.7368467042       -1.6664942599       -1.8771612494
 H          4.5945038905       -1.3753561135       -2.4929755262
 H          2.8439587844       -1.4958408856       -2.4869434397
 H          3.8689365448       -2.4072339842        2.2657591014
 H          5.3836648186       -3.3020419597        2.3459443821
 H          5.8267137509       -2.2066072496       -0.0451653235
 H          6.0597325718       -1.2746663413        1.4427387178
 O          4.1758941830        0.1783322779        1.3926779937
 C          3.2867718622        1.2269630921        1.2789252673
 O          3.2676063198        1.9898716725        2.2652090820
 H         -0.0939811857        1.0241998566       -1.4411860553
 C         -0.5531537121        1.3189692239       -0.5094002998
 C          0.1669913604        2.0959496242        0.3866645252
 C         -0.4240637949        2.4317586968        1.5993996427
 C         -1.7050006828        2.0038572380        1.9010410257
 C         -2.4199276220        1.2305209414        1.0037763090
 C         -1.8322178932        0.8774192633       -0.2036701044
 N         -2.5439488473        0.0789052229       -1.1183195218
 S         -3.1869432228       -1.3626606906       -0.5421400264
 O         -2.4325311762       -1.8690710082        0.5818886613
 O         -3.2838213265       -2.2287441897       -1.6969077505
 C         -4.8294310424       -0.9088936586       -0.0235334463
 C         -5.2389025480       -1.1583661743        1.2715751968
 C         -6.5235377113       -0.7988689736        1.6491912078
 C         -7.3711985887       -0.2003463713        0.7297123817
 C         -6.9455905088        0.0405842365       -0.5682878857
 C         -5.6632566154       -0.3173161225       -0.9523022471
 H         -5.2943973258       -0.1518805118       -1.9507391159
 H         -7.6078317452        0.5057298918       -1.2805990170
 H         -8.3696068333        0.0796593058        1.0265369886
 H         -6.8562048843       -0.9859709486        2.6575638938
 H         -4.5427842183       -1.6207571048        1.9533773708
 H         -2.0344615658       -0.0849402169       -1.9756227201
 H         -3.4157852913        0.8894104671        1.2354091488
 H         -2.1512592158        2.2735453804        2.8461378221
 H          0.1374446736        3.0168985374        2.3135040859
 C          1.5773648364        2.5336958203        0.0704811767
 H          1.9092519406        3.1965510039        0.8805633203
 C          1.6494631126        3.3029168170       -1.2339582711
 C          1.1782597784        4.7244886891       -1.2626302530
 C          2.6411379828        4.4170705413       -1.3702320418
 H          3.1315289220        4.5556377814       -2.3220947239
 H          3.2723670173        4.6308414503       -0.5197476200
 H          0.8175077660        5.1493274536       -0.3381384017
 H          0.6611405897        5.0779156668       -2.1413249969
 H          1.4693032930        2.6929336400       -2.1088444645
 O          1.9624918225        0.4373421888       -2.0015178591
