  62
        -98.94620358
 C         -1.8079678843       -1.0615425412       -0.2659985351
 C         -3.1647783858       -1.2968620446        0.0611211981
 C         -4.1185493834       -0.2707186108       -0.3804323490
 C         -3.6662652274        0.7975293354       -1.0627232601
 C         -4.5197140435        1.9416324505       -1.5264038164
 C         -4.5749076680        3.0574566180       -0.4734444418
 C         -4.9023409280        2.5619592990        0.9351062470
 H         -4.0818336494        1.9354684718        1.2922014960
 H         -4.9449960440        3.4376017378        1.5863617675
 C         -6.2191964381        1.7805485105        1.0429082410
 H         -6.8435201200        1.9839866942        0.1721502523
 H         -6.7644732398        2.1320034458        1.9214064525
 C         -6.0484319042        0.2684844368        1.2009554563
 H         -5.3502550838        0.0615417941        2.0159941146
 H         -7.0155894955       -0.1552107391        1.4843551894
 C         -5.5685637723       -0.4833814476       -0.0471160349
 H         -5.6767328510       -1.5542978433        0.1485046847
 H         -6.2016283044       -0.2250699627       -0.8984622219
 H         -5.3213672881        3.7898113478       -0.7861681846
 H         -3.6025151134        3.5541913397       -0.4440111856
 H         -4.0879838619        2.3419863105       -2.4452097385
 H         -5.5230877740        1.5769849203       -1.7376119189
 O         -2.3570225506        0.9817632253       -1.3703425912
 C         -1.3942201564        0.0643490322       -0.9763806232
 O         -0.2334506022        0.3623813113       -1.3138335430
 H          1.9969991479       -2.0489097299       -0.1453243860
 C          1.6479997209       -1.5007828519        0.7130427679
 C          0.2955506008       -1.4133600998        1.0011172862
 C         -0.1008299654       -0.6900084554        2.1243590492
 C          0.8297268971       -0.0609228548        2.9272429261
 C          2.1786039042       -0.1322656597        2.6228410421
 C          2.5857650527       -0.8560194129        1.5100059845
 N          3.9515017577       -0.9692198914        1.1849613845
 S          4.4842704028       -0.4574054189       -0.3187127300
 O          3.8257003073       -1.2070849365       -1.3554003323
 O          5.9247629341       -0.5813382138       -0.2570496091
 C          4.0429399037        1.2698448579       -0.3848779940
 C          5.0134452231        2.2059866902       -0.0810018024
 C          4.6720177795        3.5480086721       -0.0630735411
 C          3.3671664229        3.9297763448       -0.3379106756
 C          2.4056331101        2.9770939922       -0.6357053133
 C          2.7395939236        1.6311422020       -0.6608807203
 H          1.9985250410        0.8828963657       -0.8948389279
 H          1.3875662865        3.2613132552       -0.8506457407
 H          3.0974806700        4.9741546640       -0.3214251531
 H          5.4199395270        4.2898909177        0.1663835090
 H          6.0148882336        1.8625246890        0.1228261005
 H          4.5675156945       -0.5974730175        1.8950632248
 H          2.9088265281        0.3640807725        3.2440089414
 H          0.5047270488        0.4955809261        3.7933082125
 H         -1.1554410033       -0.6289608141        2.3570116052
 C         -0.7625361022       -2.0777497677        0.1565454726
 H         -1.2984048565       -2.8046313847        0.7852259767
 C         -0.2100594861       -2.8010452259       -1.0533426727
 C          0.3269734642       -4.1933355573       -0.9167716362
 C         -0.9746601932       -3.9575153325       -1.6208257460
 H         -1.0116053294       -4.0749030795       -2.6935409749
 H         -1.8878263867       -4.2417549749       -1.1183755896
 H          1.1887842929       -4.4705991608       -1.5053058555
 H          0.2989211720       -4.6458251622        0.0630216778
 H          0.2798742128       -2.1350102423       -1.7558827793
 O         -3.5571556556       -2.3128615711        0.6955083999
