  62
        -98.93740636
 C         -1.6128537232       -1.2572273205       -0.7112077640
 C         -2.9278650678       -1.1453323992       -0.1729904862
 C         -3.6538358861        0.1010319895       -0.4271078999
 C         -3.0722024246        1.0707061050       -1.1538140128
 C         -3.6814964345        2.3956670459       -1.5225490330
 C         -3.5403869870        3.4662952483       -0.4321307636
 C         -4.4376419580        3.2687047762        0.7903645679
 H         -4.4054940207        4.1969421571        1.3643003370
 H         -5.4679515776        3.1219402137        0.4642638421
 C         -4.0147045000        2.1103001974        1.7049405025
 H         -2.9809425531        1.8302680849        1.4851401082
 H         -4.0370395848        2.4419771278        2.7457741694
 C         -4.9000222443        0.8673347621        1.6072370236
 H         -4.4843131158        0.1003368405        2.2658296330
 H         -5.9057431435        1.1063716304        1.9603101327
 C         -5.0057148855        0.2736934474        0.1966517257
 H         -5.6346105610        0.9050364362       -0.4309013452
 H         -5.4654981579       -0.7145353093        0.2743459346
 H         -2.4953490621        3.5055241728       -0.1138481911
 H         -3.7866179243        4.4293138680       -0.8857821138
 H         -4.7354411516        2.2596317148       -1.7674357705
 H         -3.1571745734        2.7425755515       -2.4156338812
 O         -1.8273358525        0.9303464277       -1.6683021801
 C         -1.0547124044       -0.2022453103       -1.4366363731
 O          0.0737839561       -0.1133992500       -1.9560800988
 O         -3.4808879278       -2.0623223239        0.4939090306
 C         -0.9069787280       -2.5580628223       -0.3655280182
 C          0.0965837682       -2.4125801459        0.7592056541
 C          0.1129862012       -3.3567041016        1.7813139717
 C          1.0012234740       -3.2404181921        2.8342627351
 C          1.8733666430       -2.1697385275        2.8985490896
 C          1.8710096925       -1.2215777699        1.8798566209
 C          1.0035529188       -1.3640968780        0.8053718113
 H          1.0126767165       -0.6280646676        0.0217754733
 N          2.7603121073       -0.1433662535        1.9371511802
 S          2.5110947202        1.3715447546        1.2675112202
 O          3.1098870834        2.2812061706        2.2252958911
 O          1.1223025211        1.6051535606        0.9560169912
 C          3.5418508082        1.3409889711       -0.1843824384
 C          4.8928181886        1.5713598440        0.0001507207
 C          5.7402079189        1.5265739900       -1.0937022831
 C          5.2259560321        1.2498488272       -2.3519269685
 C          3.8696241994        1.0222583609       -2.5202996631
 C          3.0141106738        1.0669232805       -1.4287665378
 H          1.9557921682        0.8902811995       -1.5417932572
 H          3.4632121781        0.8060617204       -3.4956428473
 H          5.8839651225        1.2129793569       -3.2058992958
 H          6.7952927532        1.7061218145       -0.9637098703
 H          5.2465966610        1.7960886528        0.9927547199
 H          3.2909957052       -0.0793625617        2.7927436461
 H          2.5507772153       -2.0620884588        3.7321254135
 H          1.0024835035       -3.9783048127        3.6221681441
 H         -0.5907794977       -4.1759000725        1.7539249492
 H         -1.7294247833       -3.1692960723        0.0405091208
 C         -0.3015315388       -3.4058444127       -1.4818133516
 C         -0.5804455755       -3.1882719050       -2.9361185138
 C          0.8014113837       -2.9717903958       -2.3959275104
 H          1.5690142220       -3.6918909038       -2.6391347289
 H          1.1470297585       -1.9547245125       -2.3237291078
 H         -0.7745687435       -4.0481545694       -3.5602492156
 H         -1.1474296533       -2.3102723012       -3.2095462659
 H         -0.2485084990       -4.4456042296       -1.1694416484
