  62
        -98.94198468
 C          1.5161785421        1.5212573445        0.1953123055
 C          2.4130241946        0.8686242504        1.0801699127
 C          3.2396643192       -0.1934653136        0.4980826651
 C          3.0995444071       -0.5093568266       -0.8019522769
 C          3.9380544664       -1.4973997954       -1.5672658172
 C          3.4733111546       -2.9544896492       -1.4521225471
 C          3.7010422451       -3.6056787048       -0.0877561194
 H          3.5094111251       -4.6740536542       -0.2055509717
 H          4.7484597804       -3.4946332325        0.1947541074
 C          2.8038464181       -3.0613443818        1.0329381515
 H          1.9639733453       -2.5148152953        0.5980092816
 H          2.3835487956       -3.8941571869        1.6006815934
 C          3.5226378927       -2.1522393347        2.0301630075
 H          2.7915583984       -1.7992109557        2.7621615331
 H          4.2844920797       -2.7232240840        2.5656019735
 C          4.1902819126       -0.9238271426        1.3973239416
 H          5.0829115900       -1.2224732191        0.8475535620
 H          4.4848697532       -0.2411604743        2.1982373094
 H          2.4135219166       -2.9982051944       -1.7074611039
 H          4.0210415951       -3.5303973531       -2.2017576551
 H          4.9756380873       -1.4183056545       -1.2405683581
 H          3.8827329164       -1.2023568368       -2.6176520435
 O          2.1702504455        0.0814484504       -1.5968479493
 C          1.3409069355        1.0939627848       -1.1220044280
 O          0.5201797838        1.5000672632       -1.9636770656
 O          2.5261616697        1.1709581985        2.2981737387
 C          0.7075081282        2.6800788742        0.7506915098
 C         -0.7461318926        2.5431402341        0.3800643171
 C         -1.3817686566        3.3768214062       -0.5305072779
 C         -2.7127276154        3.1785688218       -0.8529962337
 C         -3.4403478932        2.1582272698       -0.2684627252
 C         -2.8139719344        1.3183740698        0.6433049294
 C         -1.4782307906        1.5148260154        0.9618151459
 H         -0.9892213277        0.8541427532        1.6676770207
 N         -3.5592251359        0.2837415689        1.2502450347
 S         -4.1151989831       -0.9677059191        0.2917422704
 O         -4.7481551437       -0.4177727971       -0.8782545330
 O         -4.9461235180       -1.7787586471        1.1518069427
 C         -2.6704830530       -1.9083105206       -0.1733671753
 C         -1.7427003572       -1.3488758206       -1.0299469128
 C         -0.6215144711       -2.0887068087       -1.3733538281
 C         -0.4508479072       -3.3664647903       -0.8624945301
 C         -1.3875567402       -3.9099850855        0.0030514609
 C         -2.5062102731       -3.1738103443        0.3555785537
 H         -3.2626392061       -3.5549461371        1.0224406629
 H         -1.2477102442       -4.9021468754        0.4006743936
 H          0.4159091046       -3.9459738843       -1.1396850523
 H          0.1105888285       -1.6503858222       -2.0348102089
 H         -1.8917704915       -0.3536131186       -1.4197053789
 H         -3.1156979152       -0.1023112557        2.0721391935
 H         -4.4736191260        1.9847217218       -0.5200225616
 H         -3.1913806492        3.8285929993       -1.5697212699
 H         -0.8254489987        4.1655777428       -1.0093851020
 H          0.7907350469        2.5709647886        1.8447982298
 C          1.2803604260        4.0485032845        0.4096936974
 C          2.7603640841        4.2540575123        0.2940364309
 C          1.8917093327        4.3633353700       -0.9213745295
 H          1.7223029445        5.3435242633       -1.3427443028
 H          1.9313675454        3.5752346585       -1.6570938297
 H          3.1880262990        5.1556772660        0.7059169481
 H          3.3950459462        3.3853417495        0.3924692435
 H          0.7206601713        4.8470992218        0.8871889289
