  62
        -98.94636895
 C         -1.7729847924       -0.7472703725        0.2348116100
 C         -3.0631737368       -0.9540168000        0.7794588416
 C         -3.9659009620        0.2017484415        0.7378370365
 C         -3.5323902515        1.3696104034        0.2290491645
 C         -4.3264837600        2.6444439143        0.1386024117
 C         -5.2361780342        2.7262427733       -1.0948993221
 C         -6.4729640786        1.8279970362       -1.0518635751
 H         -7.0113831342        1.9969623270       -0.1187759011
 H         -7.1270595596        2.1442530880       -1.8668887172
 C         -6.1742401965        0.3307753573       -1.2123381096
 H         -5.1716403682        0.2011336423       -1.6266429785
 H         -6.8740745813       -0.1056115541       -1.9286303850
 C         -6.2842153622       -0.4799484520        0.0790753196
 H         -6.0162274453       -1.5160110388       -0.1434212589
 H         -7.3177196888       -0.4683443250        0.4323249697
 C         -5.3748491318        0.0119574296        1.2126991349
 H         -5.7645057157        0.9393431438        1.6318239572
 H         -5.3619559803       -0.7493366696        1.9965765894
 H         -5.5696208645        3.7625843079       -1.1856057125
 H         -4.6444870384        2.4889056221       -1.9820985393
 H         -4.9243959951        2.7695369743        1.0417134013
 H         -3.6011545878        3.4590404572        0.0852633214
 O         -2.2741682503        1.5349732715       -0.2587970887
 C         -1.3721390164        0.4811619119       -0.2881497919
 O         -0.2679879358        0.7673503796       -0.7875917027
 O         -3.4376390886       -2.0469924718        1.2822954159
 C         -0.7908648314       -1.9044035744        0.2118590717
 C          0.4639036683       -1.5337425157        0.9616775127
 C          0.3494771964       -1.1046810833        2.2827115841
 C          1.4672508594       -0.7528367665        3.0128030177
 C          2.7255824430       -0.8121688764        2.4379623933
 C          2.8518251248       -1.2422788779        1.1238172177
 C          1.7266585531       -1.6105098500        0.3965999897
 H          1.8593735271       -1.9341595344       -0.6216388416
 N          4.1191562794       -1.3360507959        0.5157693789
 S          4.4210781417       -0.4682428014       -0.8852140472
 O          3.5237288901       -0.8900878383       -1.9279082061
 O          5.8324420616       -0.6645359122       -1.1383353805
 C          4.1343042533        1.2320649296       -0.4276822847
 C          2.8418138047        1.7114880439       -0.3583791540
 C          2.6407629863        3.0156574112        0.0688898482
 C          3.7211474613        3.8107056431        0.4172528637
 C          5.0131675975        3.3118200032        0.3412817369
 C          5.2230960270        2.0092983002       -0.0797759130
 H          6.2090912945        1.5803070718       -0.1585037770
 H          5.8532129405        3.9318796553        0.6100250293
 H          3.5542692333        4.8238188887        0.7481130899
 H          1.6314660244        3.3921981554        0.1241436461
 H          2.0075979831        1.0861251718       -0.6353615923
 H          4.8862073499       -1.1955997337        1.1590717121
 H          3.6015892476       -0.5322605935        3.0033955040
 H          1.3602726909       -0.4235922607        4.0352681802
 H         -0.6348721545       -1.0515979793        2.7279223590
 H         -1.2883670179       -2.7194078986        0.7586637875
 C         -0.5413033570       -2.3585621805       -1.2106199344
 C         -0.1428160843       -3.7762564516       -1.4873590804
 C         -1.5146909524       -3.2978178085       -1.8545311410
 H         -1.7522551137       -3.1590327465       -2.8987035833
 H         -2.3504506670       -3.6319643100       -1.2569446857
 H          0.5666727108       -3.9646565431       -2.2792020195
 H         -0.0473134080       -4.4421080645       -0.6429754647
 H         -0.1139537453       -1.5802350725       -1.8340589196
