  62
        -98.94176013
 C          2.1949291083        1.2637342037        0.2993263595
 C          1.8035799997        0.3177896125       -0.6805254085
 C          2.6164695114       -0.9096641184       -0.7438799333
 C          3.6389070760       -1.0758953910        0.1136485726
 C          4.5284478428       -2.2835351392        0.1706592143
 C          3.9886441898       -3.3315739744        1.1533823421
 C          2.5084186967       -3.6572365018        0.9541422995
 H          2.2441185802       -4.4314769268        1.6778894505
 H          1.9134440851       -2.7741381189        1.2000940968
 C          2.1487127742       -4.1334679466       -0.4602261844
 H          3.0494920291       -4.4606336661       -0.9806456409
 H          1.4882325258       -4.9994376023       -0.3794270521
 C          1.4169851726       -3.0942354375       -1.3115815773
 H          0.5675801668       -2.7007321823       -0.7478996686
 H          1.0176632899       -3.6024245903       -2.1933177240
 C          2.2643182492       -1.9144299986       -1.8053776917
 H          3.1665934269       -2.2905602169       -2.2919843007
 H          1.6768699160       -1.3677021806       -2.5489371524
 H          4.5806038919       -4.2423940704        1.0472116978
 H          4.1236641271       -2.9561263663        2.1705684828
 H          4.6121982492       -2.7137759975       -0.8254945150
 H          5.5179551442       -1.9642127079        0.5025427891
 O          3.9540499925       -0.1665921797        1.0716296715
 C          3.2369770274        1.0129840384        1.1955995973
 O          3.6124304316        1.7425042052        2.1352789301
 H          0.0551800808        0.8246761604        1.8467672170
 C         -0.5911244591        1.4255379750        1.2175001860
 C         -0.0249269486        2.3976120107        0.4012398605
 C         -0.8662081888        3.1502238747       -0.4076855231
 C         -2.2348519789        2.9425331112       -0.3841538970
 C         -2.7937057006        1.9758516886        0.4301167763
 C         -1.9583014789        1.1991747067        1.2238509477
 N         -2.5086840716        0.1845128556        2.0230104051
 S         -3.7602636802       -0.7343026019        1.4005641769
 O         -5.0127980021       -0.0576640257        1.6347766750
 O         -3.6240335228       -2.0282647617        2.0344248786
 C         -3.4786968035       -0.8672677143       -0.3569101503
 C         -2.2264029456       -1.2312951512       -0.8080563819
 C         -2.0047072475       -1.3258451849       -2.1714715757
 C         -3.0385456596       -1.0660578622       -3.0574361729
 C         -4.2948177790       -0.7128058331       -2.5898798821
 C         -4.5188056776       -0.6077731777       -1.2267073198
 H         -5.4750059849       -0.3219426113       -0.8189524078
 H         -5.0969418396       -0.5119915325       -3.2817585237
 H         -2.8599946009       -1.1367282395       -4.1187278035
 H         -1.0206958250       -1.5794525881       -2.5299683811
 H         -1.4338477181       -1.4201721325       -0.1011362082
 H         -1.8260068220       -0.3910985883        2.4926645919
 H         -3.8582246742        1.8087267498        0.4649118126
 H         -2.8760680505        3.5399695411       -1.0138345751
 H         -0.4523520607        3.8920119354       -1.0698905424
 C          1.4716746329        2.5891934548        0.4639709027
 H          1.7166784067        2.9189501782        1.4879507439
 C          1.9753794910        3.6805343031       -0.4711127548
 C          3.3471435329        3.6213628839       -1.0725522014
 C          2.1400720269        3.4502679537       -1.9423999642
 H          1.8811081573        4.2503799434       -2.6202471127
 H          1.9115812416        2.4659196372       -2.3184682442
 H          3.9552510517        2.7541070182       -0.8589258576
 H          3.9115689511        4.5390885716       -1.1451167718
 H          1.6348786877        4.6648494257       -0.1651331457
 O          0.8364550745        0.4750471246       -1.4668144305
