  62
        -98.93891703
 C          1.9008416899        0.5678701871       -0.1009450022
 C          2.9502037914        0.6516410605        0.8494674361
 C          4.1309120323       -0.2068026389        0.6407761380
 C          4.1477369033       -1.0292678167       -0.4241395616
 C          5.2433123328       -1.9631998699       -0.8636033590
 C          6.4155497144       -1.2275895486       -1.5342722227
 C          6.8486950494        0.0617952237       -0.8410950972
 H          7.5952649977        0.5454193345       -1.4766542271
 H          5.9940679870        0.7374975149       -0.7745284841
 C          7.4627401946       -0.1183378079        0.5450728563
 H          7.7898687177        0.8673033378        0.8859148277
 H          8.3488033157       -0.7520985351        0.4643244634
 C          6.5410774706       -0.7087762643        1.6137751218
 H          7.0320228153       -0.5663943539        2.5810254494
 H          6.4263561482       -1.7813206954        1.4818759890
 C          5.1739465095       -0.0400225648        1.7191252405
 H          4.6941453708       -0.3734517854        2.6474522452
 H          5.3120464994        1.0404864364        1.8392775454
 H          7.2625835441       -1.9127690879       -1.5967345120
 H          6.1134435676       -0.9710592116       -2.5525813869
 H          5.5869704681       -2.5554660219       -0.0205507234
 H          4.8002431382       -2.6471768484       -1.5909844579
 O          3.1157479593       -1.0824058665       -1.3109487161
 C          1.9779945946       -0.3071387689       -1.1833276198
 O          1.1420304149       -0.5033415338       -2.0900749919
 O          2.9107270997        1.4289936744        1.8407980764
 C          0.6977904461        1.4660769981        0.1332552059
 C         -0.4410854382        0.7025342573        0.7659592399
 C         -0.8908776102        1.0190990487        2.0422462800
 C         -1.9450899478        0.3256138126        2.6117314433
 C         -2.5726488967       -0.6939847309        1.9195707334
 C         -2.1277226053       -1.0187570014        0.6440800638
 C         -1.0757269619       -0.3186133190        0.0725870326
 H         -0.7290338716       -0.5829155823       -0.9153288767
 N         -2.7681566966       -2.0471001752       -0.0722198360
 S         -4.4370835772       -1.9481517546       -0.1782269550
 O         -5.0281292055       -2.5008182313        1.0155090224
 O         -4.7883539915       -2.6072492060       -1.4164205045
 C         -4.7827993482       -0.1998020961       -0.2676659640
 C         -5.4999404288        0.4145726396        0.7383087382
 C         -5.7069428605        1.7832533722        0.6736006763
 C         -5.1908166910        2.5101780139       -0.3875446071
 C         -4.4759829387        1.8770912709       -1.3928249503
 C         -4.2669100083        0.5092998911       -1.3344230707
 H         -3.7160904916       -0.0119463258       -2.1012648618
 H         -4.0764310343        2.4430115494       -2.2189817600
 H         -5.3457218400        3.5765011394       -0.4335519293
 H         -6.2645006218        2.2778465229        1.4524612960
 H         -5.8788114441       -0.1885096945        1.5471456422
 H         -2.3565647020       -2.2171631261       -0.9786064957
 H         -3.3930491591       -1.2484132448        2.3460436777
 H         -2.2814706906        0.5808804965        3.6048321831
 H         -0.3982402900        1.8063049584        2.5937977620
 H          1.0398264765        2.2154854724        0.8592988135
 C          0.2305565492        2.1860047865       -1.1174162428
 C         -0.6204083990        3.4105892317       -0.9732235684
 C          0.7972223044        3.5337417696       -1.4435758828
 H          0.9812670999        3.7773526662       -2.4792651557
 H          1.5276280117        3.9470940272       -0.7633392811
 H         -1.4134887773        3.5725166260       -1.6862804434
 H         -0.8534653691        3.7416019879        0.0271269488
 H          0.0241650318        1.5212869936       -1.9458277010
