  62
        -98.93918927
 C         -2.4185463639       -1.2322256115       -0.0744436460
 C         -3.4925173570       -0.8944166356        0.7849068028
 C         -4.4093699301        0.1585555437        0.3166666555
 C         -4.1756010598        0.7434504433       -0.8709164226
 C         -4.9444730669        1.8692037533       -1.5055842636
 C         -4.3101832911        3.2263626002       -1.1562902420
 C         -4.8047104833        3.8519620784        0.1473969766
 H         -4.1888637783        4.7340406646        0.3374154554
 H         -5.8335149069        4.1928351092        0.0136184370
 C         -4.7471067306        2.9384262399        1.3744818838
 H         -4.7581881497        3.5718618912        2.2635830521
 H         -3.8024760064        2.3910847785        1.3803692261
 C         -5.9240421948        1.9544394939        1.4503967992
 H         -6.3873830361        2.0211464880        2.4368730491
 H         -6.6855170432        2.2537489355        0.7305517522
 C         -5.5587530097        0.4788918225        1.2332464764
 H         -5.2808829246        0.0287723245        2.1913588964
 H         -6.4447123273       -0.0597960558        0.8809745070
 H         -4.5156105228        3.9281474526       -1.9672996639
 H         -3.2262509200        3.0888533815       -1.1116884228
 H         -4.8763753889        1.7216784748       -2.5854434645
 H         -5.9895148978        1.8362614738       -1.2123443682
 O         -3.1234653892        0.3977505796       -1.6623699412
 C         -2.2207003088       -0.5850487343       -1.2937134405
 O         -1.3193678825       -0.7831095491       -2.1321699936
 H          0.7567097842       -1.9648757813       -1.2108458880
 C          0.8849527503       -1.5344805700       -0.2303199986
 C         -0.1303341890       -1.6403653099        0.7072782088
 C          0.0475472801       -1.0433949661        1.9524749255
 C          1.2143057628       -0.3646844713        2.2494152927
 C          2.2232803496       -0.2555320449        1.3078680114
 C          2.0469555658       -0.8303403842        0.0570691776
 N          3.0577724199       -0.7089171264       -0.9128925169
 S          3.7065458703        0.8168679288       -1.1826482343
 O          2.7670445300        1.8670315070       -0.8628500812
 O          4.2011788925        0.7847698694       -2.5419687207
 C          5.0965948759        0.8790169839       -0.0691849471
 C          5.2194200150        1.9238977637        0.8255389206
 C          6.3138509460        1.9533104684        1.6761150631
 C          7.2616820876        0.9433368768        1.6163753084
 C          7.1256345245       -0.0974992088        0.7097634242
 C          6.0346332427       -0.1321249209       -0.1437458786
 H          5.8932816216       -0.9201739546       -0.8642711221
 H          7.8648359904       -0.8810283211        0.6658521587
 H          8.1114318901        0.9678339518        2.2801598062
 H          6.4212137210        2.7621292294        2.3809572363
 H          4.4545877429        2.6842897776        0.8399709178
 H          2.8177041379       -1.1465211767       -1.7913658900
 H          3.1305973777        0.2831384141        1.5270711764
 H          1.3399360194        0.0884569239        3.2210290538
 H         -0.7499840401       -1.1072866775        2.6795282003
 C         -1.4462134498       -2.3055352336        0.3886189433
 H         -1.8682857191       -2.6925805753        1.3255975712
 C         -1.3350361190       -3.4454756612       -0.6016040458
 C         -0.7045778961       -4.7332635922       -0.1655589957
 C         -2.1815728738       -4.6664121956       -0.4085702636
 H         -2.5846452301       -5.1555847497       -1.2826971167
 H         -2.8424748516       -4.6858707188        0.4454804118
 H         -0.3613182714       -4.7965606178        0.8558424227
 H         -0.0910197477       -5.2723599889       -0.8709916610
 H         -1.1698273788       -3.1179656554       -1.6207528748
 O         -3.6772779847       -1.4501518115        1.9006752576
