  62
        -98.94510460
 C          2.2303516505        0.7940984187       -0.0348487807
 C          3.1708479205        0.5955472287        1.0086999593
 C          3.9897520204       -0.6196166514        0.9232135293
 C          3.7829910404       -1.4795883414       -0.0906286607
 C          4.5748250103       -2.7320056714       -0.3282435707
 C          5.7795079503       -2.4627199415       -1.2411462807
 C          6.6201291804       -1.2588227815       -0.8155903707
 H          7.4567596604       -1.1838678916       -1.5135523707
 H          6.0240696104       -0.3505336215       -0.9296034807
 C          7.1569161004       -1.3352983615        0.6205398593
 H          7.1124597804       -2.3646035015        0.9780916193
 H          8.2076510204       -1.0380743315        0.6177819893
 C          6.4382258904       -0.4220085814        1.6153050993
 H          7.0278973704       -0.3905863414        2.5352552893
 H          6.3991114505        0.5947323785        1.2166185893
 C          5.0144222304       -0.8437973714        1.9996938793
 H          5.0131541004       -1.8875871114        2.3202410293
 H          4.7005909404       -0.2243453114        2.8448452293
 H          5.4120775804       -2.2834107615       -2.2542817607
 H          6.4043588403       -3.3574742215       -1.2599605907
 H          4.9111955803       -3.1293734314        0.6274619593
 H          3.9227505603       -3.4648796314       -0.8067470806
 O          2.8483484404       -1.2758138114       -1.0526039607
 C          2.0533701004       -0.1383844913       -1.0570779107
 O          1.2569101804       -0.0885467413       -2.0153118807
 H         -0.7355135695        1.3220249788       -1.5765346807
 C         -0.9802934995        1.2702615788       -0.5272875307
 C         -0.0310753295        1.6248069088        0.4192454193
 C         -0.3588107895        1.5097717488        1.7672028393
 C         -1.6058675395        1.0556405089        2.1538410093
 C         -2.5477149695        0.6949948089        1.2058237193
 C         -2.2232964395        0.7883489789       -0.1404124307
 N         -3.1662686595        0.3975998089       -1.1097325107
 S         -3.8491942796       -1.1291266911       -0.9383128607
 O         -2.9749614196       -2.0311650311       -0.2239050707
 O         -4.2367576796       -1.5271473711       -2.2743742007
 C         -5.3223128196       -0.8223898210        0.0165108393
 C         -6.2349346295        0.0930301390       -0.4704302307
 C         -7.3889641995        0.3387996791        0.2561300993
 C         -7.6115188996       -0.3330473009        1.4490108493
 C         -6.6875908596       -1.2518070409        1.9226302093
 C         -5.5306063996       -1.5016877610        1.2008368493
 H         -4.7814929096       -2.2035071010        1.5318319994
 H         -6.8619656496       -1.7736269709        2.8498975393
 H         -8.5103497896       -0.1398521108        2.0129805893
 H         -8.1099236895        1.0522556091       -0.1091348407
 H         -6.0252904595        0.5898332790       -1.4028670507
 H         -2.8305931095        0.5197340888       -2.0552054607
 H         -3.5178930495        0.3284142889        1.4988721093
 H         -1.8471177795        0.9764518789        3.2029525993
 H          0.3857140705        1.7644506288        2.5083113593
 C          1.3644059705        2.0430324187        0.0269615192
 H          1.7815849206        2.6419130687        0.8474614692
 C          1.4220564506        2.8589221487       -1.2473085008
 C          0.9067479506        4.2661763687       -1.2346228208
 C          2.3790840306        4.0081644287       -1.3375303008
 H          2.8720652406        4.1937583486       -2.2801070108
 H          2.9957420706        4.2143117586       -0.4750064708
 H          0.3864147006        4.6328717787       -2.1060480008
 H          0.5227727206        4.6454818187       -0.2998507808
 H          1.2726422605        2.2722421987       -2.1450995008
 O          3.3196426405        1.4017739687        1.9649425793
