  62
        -98.93836130
 C         -2.3366692837        1.1494021499       -0.1942276172
 C         -2.3644766058       -0.1135449736        0.4411547608
 C         -3.3735698873       -1.0711823101       -0.0510414308
 C         -4.1733875940       -0.7173826153       -1.0715312287
 C         -5.2894880650       -1.5169529946       -1.6847160476
 C         -6.6351682442       -1.1648000992       -1.0279929089
 C         -6.9708814779       -1.9710032881        0.2260244049
 H         -7.2071764750       -2.9980100309       -0.0601631381
 H         -7.8738875043       -1.5357641998        0.6601140166
 C         -5.8769318573       -2.0017430305        1.2964582966
 H         -6.3452438832       -2.2662588477        2.2465165623
 H         -5.4482993840       -1.0048127694        1.4138418729
 C         -4.7638633483       -3.0158926448        0.9928844093
 H         -5.0887155787       -3.6712400574        0.1849845301
 H         -4.6082869880       -3.6546825166        1.8648787176
 C         -3.3982412672       -2.4053077041        0.6441454380
 H         -2.8276949279       -3.1217703639        0.0429036363
 H         -2.8243139694       -2.2492753192        1.5632760536
 H         -7.4326051849       -1.3252710781       -1.7562380331
 H         -6.6211852346       -0.0986213848       -0.7879401322
 H         -5.3318256715       -1.2327468803       -2.7382229995
 H         -5.0840283060       -2.5811070555       -1.6174315547
 O         -4.0949494014        0.5013263756       -1.6731046526
 C         -3.1862006168        1.4548884738       -1.2603094834
 O         -3.2289377698        2.5203655783       -1.9067531535
 H          0.5717453156        0.9315898842        1.6990579853
 C          0.8833739012        1.1074138217        0.6819288147
 C          0.0370769579        1.7682093859       -0.1936578283
 C          0.4491482075        1.9494745656       -1.5111975108
 C          1.6800123116        1.4855788361       -1.9347419679
 C          2.5220292974        0.8229418851       -1.0577826041
 C          2.1117094728        0.6205946784        0.2523315114
 N          2.9526960229       -0.0565717032        1.1507240431
 S          3.7220462134       -1.4564870142        0.6397516355
 O          2.9648087509       -2.1528156432       -0.3747090183
 O          4.0052828705       -2.1944893269        1.8516039349
 C          5.2571562961       -0.8619901837       -0.0423558166
 C          6.0224172995       -0.0041569692        0.7234238411
 C          7.2238497952        0.4588891866        0.2114705576
 C          7.6399403169        0.0561079980       -1.0488450557
 C          6.8626573543       -0.8088303197       -1.8035957486
 C          5.6589154195       -1.2746617355       -1.2976037977
 H          5.0186251263       -1.9428541456       -1.8515683007
 H          7.1874515881       -1.1215709571       -2.7829990162
 H          8.5752040526        0.4184618203       -1.4453965932
 H          7.8307434302        1.1319383525        0.7954233019
 H          5.6648007893        0.2835676592        1.6978224011
 H          2.5410428394       -0.1879771019        2.0637161023
 H          3.4777364040        0.4476096090       -1.3851285801
 H          1.9879950096        1.6373771975       -2.9581576300
 H         -0.2181118518        2.4471704221       -2.2014347965
 C         -1.3421599988        2.2258260067        0.2138921788
 H         -1.5965800211        3.1091002529       -0.3867246607
 C         -1.4627196414        2.5851447366        1.6800051573
 C         -0.8237662289        3.8454859616        2.1782206446
 C         -2.3158889375        3.7499458244        2.0788221105
 H         -2.8910674826        3.6779864594        2.9898330111
 H         -2.8131199432        4.2979738647        1.2917559409
 H         -0.3062692219        4.4586509064        1.4561102291
 H         -0.3727407825        3.8434366811        3.1587032090
 H         -1.4685177141        1.7241573234        2.3363855333
 O         -1.5992893012       -0.4384799274        1.3884727680
