  62
        -98.94301363
 C         -0.6986972204       -1.8218224579        0.0520421231
 C         -1.6446968918       -1.3648299619        1.0011249993
 C         -2.8988081451       -0.8366504516        0.4514654973
 C         -3.0601830286       -0.7572937717       -0.8823639435
 C         -4.3046056356       -0.3092930309       -1.6013204229
 C         -4.4667213597        1.2118094472       -1.7190861276
 C         -4.8547811236        1.9242263109       -0.4234138037
 H         -5.1658374228        2.9351713734       -0.6932762556
 H         -5.7180406831        1.4270851298        0.0199115012
 C         -3.7201104324        2.0150433981        0.6054670946
 H         -3.6775971737        3.0287643803        1.0076757836
 H         -2.7657467630        1.8209882102        0.1115538681
 C         -3.8545671293        1.0666785419        1.7954983885
 H         -2.9706924776        1.1833776591        2.4279479986
 H         -4.7311979007        1.3383902918        2.3880252557
 C         -3.9696826428       -0.4130202488        1.4122280474
 H         -3.8517938969       -1.0114465756        2.3193455579
 H         -4.9540890989       -0.6143015068        0.9887746291
 H         -5.2485731953        1.3967521271       -2.4592174281
 H         -3.5359016136        1.6338625807       -2.1035594560
 H         -4.2437563403       -0.7285060210       -2.6079674110
 H         -5.1798945186       -0.7302606823       -1.1044693319
 O         -2.0909932994       -1.1314444786       -1.7599973089
 C         -0.9073404521       -1.7090877352       -1.3219990966
 O         -0.1444871689       -2.0700670146       -2.2375778573
 H          1.3675204128       -0.0098397829        0.3189746445
 C          2.0680033448       -0.6951675697       -0.1394779362
 C          1.7953933230       -2.0587889650       -0.1332771635
 C          2.7112138178       -2.9219886531       -0.7218691044
 C          3.8612072469       -2.4314284485       -1.3134263108
 C          4.1344578880       -1.0776095093       -1.3065999779
 C          3.2309612477       -0.2041955281       -0.7108632585
 N          3.4892799450        1.1742922727       -0.7006864685
 S          3.0528684268        2.1310310188        0.5938152251
 O          3.9731865720        3.2490217512        0.5438700843
 O          3.0298432830        1.3909556992        1.8335131490
 C          1.4323871161        2.7463508982        0.1955895765
 C          0.5819964946        3.0829027390        1.2300894200
 C         -0.6342492398        3.6761035379        0.9337857553
 C         -0.9799315606        3.9185497507       -0.3869054247
 C         -0.1211354687        3.5621036690       -1.4148724049
 C          1.1008395997        2.9759869927       -1.1244974290
 H          1.7926031540        2.6917137272       -1.9000628541
 H         -0.3960357724        3.7440123346       -2.4416091001
 H         -1.9247366849        4.3855852115       -0.6158234395
 H         -1.3050200893        3.9462701933        1.7335229563
 H          0.8870179365        2.8707402518        2.2427510128
 H          4.3854462492        1.4427923497       -1.0800228233
 H          5.0358087532       -0.6930499273       -1.7592958293
 H          4.5577010855       -3.1138087546       -1.7765115632
 H          2.5237358229       -3.9826870145       -0.7250313630
 C          0.5407761091       -2.5439902799        0.5468888538
 H          0.6193104435       -2.2983117682        1.6169802554
 C          0.3208084068       -4.0390503959        0.4121265785
 C          0.9953894567       -4.9947605363        1.3494335175
 C         -0.4788702584       -4.7515320606        1.4597341145
 H         -1.1567591433       -5.5322405334        1.1482041161
 H         -0.8436300963       -4.1619328910        2.2878234811
 H          1.6364637650       -4.5772530434        2.1110879294
 H          1.3287269021       -5.9469750383        0.9650326522
 H          0.1757018918       -4.3462533101       -0.6184734816
 O         -1.4625545523       -1.4230480126        2.2472992226
