  62
        -98.94093424
 C         -2.2844454451       -0.5202011335        0.1580275398
 C         -3.5545153903       -1.0438709772        0.4990396710
 C         -4.6445211368       -0.0658132918        0.6085823562
 C         -4.3794596576        1.2380791305        0.4071710543
 C         -5.4045043511        2.3340181535        0.4346551969
 C         -5.9914399285        2.5804921101       -0.9623000276
 C         -6.4527630871        1.3073811742       -1.6717962899
 H         -5.5819063974        0.6829999601       -1.8846806430
 H         -6.8757613098        1.6063829349       -2.6332958000
 C         -7.4875240350        0.4849932187       -0.8911253404
 H         -8.2809014899        0.1796670201       -1.5765016211
 H         -7.9464609835        1.1039227349       -0.1193972727
 C         -6.9335616863       -0.7909294353       -0.2545224566
 H         -6.3909311452       -1.3694515926       -1.0063766013
 H         -7.7785236298       -1.3988763007        0.0794057948
 C         -6.0112414832       -0.5872241796        0.9540335394
 H         -5.8496026344       -1.5650644901        1.4169710844
 H         -6.4984177277        0.0624211392        1.6838194508
 H         -5.2266654574        3.0582992800       -1.5791038764
 H         -6.8312974386        3.2710404451       -0.8666879303
 H         -6.1967538236        2.0659898557        1.1309070551
 H         -4.9203971764        3.2481851861        0.7822091115
 O         -3.1405714539        1.7066405744        0.1060368100
 C         -2.0637215952        0.8431741920       -0.0346538836
 O         -0.9892474718        1.4056033562       -0.3226350422
 H          1.5637674038       -0.9905248696       -0.5074435694
 C          1.2983659324       -0.8796475447        0.5295079330
 C         -0.0053063749       -1.0866560673        0.9508532212
 C         -0.3036777876       -0.9356813733        2.3031944424
 C          0.6740346154       -0.5640989646        3.2042039805
 C          1.9686315248       -0.3298812175        2.7744949021
 C          2.2811935165       -0.4908572563        1.4304417293
 N          3.6059923758       -0.3077025180        0.9863909720
 S          3.9184163129        0.5609169539       -0.4283471751
 O          3.4725819779        1.9303123791       -0.2882034113
 O          3.4172018803       -0.1711477804       -1.5623170989
 C          5.7014602693        0.4970320576       -0.4199936750
 C          6.3148296840       -0.6898247406       -0.7739320824
 C          7.6981876859       -0.7632200611       -0.7469155997
 C          8.4416712099        0.3452069325       -0.3688628933
 C          7.8124041452        1.5301260523       -0.0189094255
 C          6.4285421334        1.6094366556       -0.0422568524
 H          5.8959746130        2.5110147650        0.2150560475
 H          8.3927359641        2.3911528733        0.2712714911
 H          9.5184095585        0.2856731691       -0.3493134644
 H          8.1912243922       -1.6820039081       -1.0207989019
 H          5.6963981575       -1.5214640688       -1.0682891795
 H          4.1965337405        0.0563542805        1.7239765846
 H          2.7310794400       -0.0263052613        3.4762564854
 H          0.4265351793       -0.4453591677        4.2485350426
 H         -1.3193062324       -1.1056621146        2.6348472257
 C         -1.1147735936       -1.4755487350        0.0061189484
 H         -1.4995848497       -2.4598290349        0.3131090727
 C         -0.6822409200       -1.5541066192       -1.4424117018
 C         -0.0261328816       -2.7954461715       -1.9659028882
 C         -1.4268304887       -2.4576284245       -2.3772823001
 H         -1.6029920634       -2.1210164940       -3.3879986927
 H         -2.2367685138       -3.0395817056       -1.9620164580
 H          0.1156185983       -3.6124436652       -1.2747351972
 H          0.7659553661       -2.6880594151       -2.6916400794
 H         -0.3472168034       -0.5979280357       -1.8315505041
 O         -3.7640156956       -2.2691243604        0.7075171012
