  62
        -98.94080002
 C         -1.5292931049       -1.4955031056       -0.0654418541
 C         -2.4970693305       -0.9125168509        0.7834895240
 C         -3.1033060727        0.3421047263        0.3110573111
 C         -2.7145898389        0.8602048069       -0.8669796757
 C         -3.2237036164        2.1113190914       -1.5357665206
 C         -3.3344759567        3.3762650291       -0.6676628126
 C         -2.3636184584        3.4511553804        0.5206034749
 H         -1.5847735412        2.6931623180        0.4208464276
 H         -1.8731438409        4.4265728745        0.5154722623
 C         -3.0611206698        3.2908383180        1.8743658824
 H         -2.4263288581        3.7255329819        2.6506710625
 H         -3.9920902310        3.8617871941        1.8588357335
 C         -3.3656560210        1.8524425468        2.2922468793
 H         -3.9789798004        1.8866522062        3.1960323694
 H         -2.4376219124        1.3381987168        2.5578065858
 C         -4.0864346467        0.9959804267        1.2387949975
 H         -4.6003461532        0.1846029627        1.7615681717
 H         -4.8235303605        1.5818973047        0.6947412956
 H         -4.3528484939        3.4693642664       -0.2920715158
 H         -3.1664425877        4.2298936543       -1.3261491008
 H         -4.2026313451        1.8910631285       -1.9702898099
 H         -2.5354521259        2.2906793811       -2.3637056117
 O         -1.7824097320        0.2606677565       -1.6575160470
 C         -1.1575206115       -0.9167845891       -1.2791242292
 O         -0.3126159189       -1.3361905527       -2.0891506747
 O         -2.8358568020       -1.4131224706        1.8906329386
 C         -0.8096232602       -2.7549959170        0.3814057623
 C          0.6694724696       -2.4681369130        0.4684457246
 C          1.6488255491       -3.2914452369       -0.0695494307
 C          2.9851109035       -2.9340017797        0.0044697089
 C          3.3746489982       -1.7567451126        0.6160209632
 C          2.4029224696       -0.9328867006        1.1702995956
 C          1.0683581515       -1.2963266364        1.1010149913
 H          0.3149344889       -0.6484766005        1.5331071083
 N          2.7824473760        0.2772149852        1.7920476205
 S          3.4988855798        1.4297510802        0.8074197602
 O          4.7823065580        0.9362909873        0.3777720444
 O          3.5096847669        2.6445797427        1.5909260768
 C          2.4149155969        1.6170936610       -0.5954679670
 C          2.5435739141        0.7550891485       -1.6659399803
 C          1.6794191680        0.8886295293       -2.7402826584
 C          0.7107250080        1.8794478579       -2.7271651341
 C          0.5931522529        2.7368536752       -1.6444798474
 C          1.4475965312        2.6015894180       -0.5624679864
 H          1.3923684213        3.2504136580        0.2975590667
 H         -0.1627950822        3.5058129705       -1.6374438141
 H          0.0390422771        1.9751770836       -3.5657301005
 H          1.7543239449        0.2117236896       -3.5752227667
 H          3.3126698670        0.0003925957       -1.6450352082
 H          2.0237903276        0.7104363216        2.3002751129
 H          4.4079679825       -1.4525238376        0.6589831580
 H          3.7344895104       -3.5805558473       -0.4264343345
 H          1.3670118136       -4.2092269754       -0.5587247107
 H         -1.1836647084       -2.9675908334        1.3940562608
 C         -1.1517423088       -3.9215006586       -0.5202325668
 C         -1.1236278215       -5.3221557738        0.0124608515
 C         -2.4340133105       -4.6616347492       -0.2904322672
 H         -2.9970032455       -4.9970324988       -1.1484479992
 H         -3.0504255454       -4.3406305712        0.5366654551
 H         -0.7889307943       -6.1155163526       -0.6387491144
 H         -0.8530221232       -5.4585500870        1.0486252307
 H         -0.8470616170       -3.7557809058       -1.5472938716
