  62
        -98.94509610
 C         -2.5606539653        0.0244710326       -0.3667184813
 C         -2.2241591030       -0.5896201275        0.8639001915
 C         -1.9347001566       -2.0290515162        0.8034550631
 C         -2.0185140707       -2.6703033182       -0.3759102999
 C         -1.7781919429       -4.1388963881       -0.5763146116
 C         -0.3261710316       -4.4423466635       -0.9654771732
 C          0.7146244656       -3.7873684851       -0.0575090278
 H          1.6958816220       -4.1360993375       -0.3888583624
 H          0.6990112471       -2.7052877476       -0.2058305744
 C          0.5450149811       -4.0904198715        1.4375064762
 H         -0.0664405119       -4.9841167905        1.5712627354
 H          1.5292821825       -4.3027092207        1.8598789871
 C         -0.0477903831       -2.9361941953        2.2490797313
 H          0.4656253158       -2.0088480881        1.9811885726
 H          0.1413881487       -3.1295192921        3.3086190165
 C         -1.5571204673       -2.7124481905        2.0867888678
 H         -2.0866233687       -3.6621340264        2.1928946889
 H         -1.8857393614       -2.0431837965        2.8873622390
 H         -0.1903263406       -5.5260545931       -0.9550532013
 H         -0.1584005081       -4.0880582654       -1.9855160353
 H         -2.0351952760       -4.6657759814        0.3409030589
 H         -2.4360588588       -4.4821414167       -1.3773862070
 O         -2.3370056977       -2.0441496325       -1.5396512903
 C         -2.5873637342       -0.6820256607       -1.5668037198
 O         -2.8331382647       -0.2261873315       -2.7048111707
 H         -0.2603840705        0.9459958494       -0.6218702843
 C         -0.4170877868        1.8566708765       -0.0618238832
 C         -1.7121298982        2.3100287734        0.1520862557
 C         -1.8904482242        3.4992328204        0.8476073121
 C         -0.7963000872        4.2008585872        1.3249207405
 C          0.4887026107        3.7285991108        1.1367126804
 C          0.6772681275        2.5342061258        0.4473207427
 N          1.9667112191        1.9967546858        0.3037090265
 S          2.2554544975        0.6148837684       -0.5997847324
 O          1.9934270401        0.8517884219       -2.0049915343
 O          1.5636851639       -0.4916640450        0.0076780839
 C          4.0101282286        0.4512981645       -0.3335799646
 C          4.8909043329        1.0069524377       -1.2421432721
 C          6.2528508013        0.9010664445       -1.0072849202
 C          6.7085461097        0.2461973545        0.1270130760
 C          5.8127078002       -0.3091206920        1.0286025262
 C          4.4498607301       -0.2067236795        0.7991179583
 H          3.7154233589       -0.6286317262        1.4656297087
 H          6.1699732734       -0.8208167228        1.9076078387
 H          7.7687043615        0.1651146382        0.3078439169
 H          6.9515976356        1.3279104256       -1.7085555566
 H          4.4909765159        1.4959295100       -2.1159423217
 H          2.7061396607        2.6808478875        0.2460316568
 H          1.3391836624        4.2669311114        1.5248497760
 H         -0.9485927707        5.1264737857        1.8590718844
 H         -2.8861112993        3.8760474288        1.0163365986
 C         -2.8624935347        1.5104402719       -0.4124044946
 H         -2.9656044744        1.7675052087       -1.4782138412
 C         -4.1775907272        1.7942460821        0.2875617958
 C         -5.0858801326        2.8795703253       -0.2048780157
 C         -5.4557397402        1.4423425987       -0.4105632874
 H         -6.2641279079        1.0256866717        0.1711298735
 H         -5.3747163055        1.0278572232       -1.4053537186
 H         -5.6463323434        3.4508804068        0.5197689959
 H         -4.7681902801        3.4459526126       -1.0674310401
 H         -4.1233088087        1.6129806917        1.3549776968
 O         -2.1862780734        0.0293128383        1.9598658952
