  62
        -98.93839645
 C         -1.8842297734       -0.7894920199        0.0797690992
 C         -2.3770314593        0.5348592282        0.1165470884
 C         -3.7966659080        0.6910346571        0.4860197374
 C         -4.5239942342       -0.4034154278        0.7697677893
 C         -5.9873233237       -0.4684691079        1.1100854331
 C         -6.8277978073       -0.7205829081       -0.1532266912
 C         -7.2342872243        0.5381667244       -0.9184300492
 H         -7.7061845863        0.2146406567       -1.8490703364
 H         -7.9860415322        1.0814423297       -0.3419921472
 C         -6.0900776695        1.4977462504       -1.2558621679
 H         -5.2237242605        0.9313302073       -1.6025739207
 H         -6.4158362918        2.1285334247       -2.0853695328
 C         -5.6883913521        2.3966809139       -0.0769778832
 H         -6.4505447864        2.3278799771        0.6990618622
 H         -5.6744159264        3.4381682984       -0.4051162122
 C         -4.3070803786        2.1055050342        0.5284262759
 H         -3.5468087137        2.6882615634       -0.0015488334
 H         -4.2930248060        2.4500692314        1.5679629392
 H         -6.2559903193       -1.3818178653       -0.8093688635
 H         -7.7384752858       -1.2512830850        0.1316720558
 H         -6.1121233885       -1.3174763083        1.7853821829
 H         -6.3054005281        0.4354271332        1.6208197060
 O         -4.0041833311       -1.6615180299        0.7302962939
 C         -2.6854219432       -1.8889051838        0.3854108416
 O         -2.3471341964       -3.0897609186        0.3933098981
 O         -1.6713646818        1.5430258746       -0.1504344078
 C         -0.4396449385       -1.0528093910       -0.3073132740
 C          0.4865270319       -0.2891134974        0.6069994901
 C          0.3163525538       -0.4157455141        1.9841081879
 C          1.1221046220        0.2794096300        2.8633998873
 C          2.1269646154        1.1053148778        2.3895615464
 C          2.3130448180        1.2310668679        1.0191565044
 C          1.5001784120        0.5299462926        0.1368071227
 H          1.6590254333        0.6623535961       -0.9197371655
 N          3.3186295023        2.0698518652        0.5114802583
 S          4.3050470566        1.5375534235       -0.7282026203
 O          5.4490824547        2.4215071959       -0.6853614074
 O          3.5784345690        1.4980992575       -1.9707553843
 C          4.7848487352       -0.1065036982       -0.2316996664
 C          4.1635925023       -1.2029057383       -0.7929402621
 C          4.5038508302       -2.4683928146       -0.3412842346
 C          5.4526507940       -2.6142158102        0.6585565997
 C          6.0719743445       -1.5020629927        1.2089432626
 C          5.7334894723       -0.2347490041        0.7643596865
 H          6.1997782780        0.6536578715        1.1584740899
 H          6.8133181895       -1.6197117877        1.9827989434
 H          5.7124359938       -3.6009510693        1.0082229480
 H          4.0251114315       -3.3345517867       -0.7698310820
 H          3.4340905960       -1.0491949556       -1.5706624941
 H          3.8574067766        2.5479549005        1.2187776789
 H          2.7523582144        1.6573373387        3.0745482177
 H          0.9697625788        0.1777444879        3.9273427702
 H         -0.4706770082       -1.0593901273        2.3536997638
 H         -0.2750205554       -2.1278667463       -0.1431135385
 C         -0.2347689690       -0.7489825795       -1.7765764135
 C          0.7708085884       -1.5205153882       -2.5749451168
 C         -0.6942202351       -1.7474597961       -2.7946836099
 H         -1.1447440148       -1.3847188554       -3.7064124939
 H         -1.1304733957       -2.6647790113       -2.4261380568
 H          1.3333823970       -1.0004079935       -3.3365214545
 H          1.3222014552       -2.2954559610       -2.0639226659
 H         -0.3784223886        0.2997209962       -2.0119573857
