  62
        -98.94316164
 C          1.9119701297        0.4743602696       -0.7676731196
 C          2.3364514197        0.1424794697        0.5421218704
 C          3.7822988797        0.2376181896        0.7826233003
 C          4.6017436697        0.6398309295       -0.2059457597
 C          6.0922946397        0.8201478094       -0.1036855497
 C          6.8949857696       -0.4727205007       -0.3025810597
 C          6.8245977196       -1.4658553006        0.8579619204
 H          7.5973096095       -2.2173199907        0.6837029904
 H          7.0729759496       -0.9536740106        1.7880738403
 C          5.4703849295       -2.1740220205        1.0028133104
 H          4.9016383695       -2.0649668405        0.0765458604
 H          5.6335732095       -3.2434658605        1.1539823905
 C          4.6159661196       -1.6769317204        2.1689237904
 H          5.1189985396       -1.8995868904        3.1125584504
 H          3.6683258196       -2.2209456403        2.1553656305
 C          4.3001075897       -0.1760176904        2.1271289204
 H          3.5168000897        0.0307465797        2.8604992304
 H          5.1861131197        0.4022832196        2.3887377703
 H          7.9398282496       -0.1881248307       -0.4469375297
 H          6.5535319396       -0.9582826407       -1.2196868297
 H          6.3425769697        1.2600586594        0.8621736402
 H          6.3739438997        1.5242325293       -0.8897597098
 O          4.1501335097        0.9627244994       -1.4478805097
 C          2.8035265597        0.8739805695       -1.7623296397
 O          2.5288852196        1.1829408295       -2.9405562497
 O          1.5534045997       -0.2059632802        1.4626498204
 C          0.4408170696        0.3987003997       -1.1269130996
 C         -0.3887609303        1.3047162198       -0.2481483196
 C          0.1291439398        2.5244262098        0.1780636503
 C         -0.6183485901        3.3720992599        0.9721466903
 C         -1.9104759601        3.0363158200        1.3350482403
 C         -2.4472077902        1.8330622800        0.8961741204
 C         -1.6848427703        0.9723545899        0.1181079804
 H         -2.1201522404        0.0427017499       -0.2094137395
 N         -3.7560438102        1.4621755401        1.2404937705
 S         -4.7512760303        0.7831497601        0.0781231305
 O         -4.4391841403        1.2737563700       -1.2438739195
 O         -6.0953152303        1.0433964402        0.5499278005
 C         -4.4476913904       -0.9684152599        0.1730873606
 C         -4.5201136705       -1.7183103700       -0.9839978294
 C         -4.3415057206       -3.0909983400       -0.9072792393
 C         -4.0945132506       -3.6865910800        0.3199343307
 C         -4.0247511305       -2.9189176099        1.4727479907
 C         -4.2074498204       -1.5469840099        1.4036622406
 H         -4.1568743504       -0.9217063199        2.2792708206
 H         -3.8284470805       -3.3851288099        2.4248770807
 H         -3.9535686006       -4.7544568400        0.3775390108
 H         -4.3940966306       -3.6881268601       -1.8038925193
 H         -4.7013960305       -1.2134124000       -1.9193645394
 H         -4.2537410102        2.1385710501        1.8012603504
 H         -2.4983008901        3.7004792700        1.9505073803
 H         -0.1949490101        4.3082981799        1.3041040702
 H          1.1333307098        2.7988128197       -0.1154873897
 H          0.3586541296        0.7699801196       -2.1600245496
 C         -0.0213591404       -1.0450036103       -1.0906240495
 C         -1.0617835905       -1.5404991003       -2.0479988694
 C          0.3686252695       -1.9539308404       -2.2160180395
 H          0.6425479894       -2.9725574904       -1.9864960694
 H          0.9368330795       -1.5199930104       -3.0263573695
 H         -1.7694370405       -2.2779090802       -1.6997877994
 H         -1.4736042505       -0.8325149803       -2.7520349795
 H         -0.0120561904       -1.4556750502       -0.0874543895
