  62
        -98.93789461
 C          1.3406019542        1.2415270335        0.9255891649
 C          2.1089823699        0.6651180928       -0.1170933233
 C          2.5834229094       -0.7077421167        0.1122149058
 C          2.2073236864       -1.3697672282        1.2187678822
 C          2.5533660747       -2.7900263219        1.5752309842
 C          1.9628929754       -3.8533286143        0.6275729150
 C          2.9322231264       -4.3256317101       -0.4634933738
 H          3.9546081907       -4.1363764906       -0.1331024466
 H          2.8342006215       -5.4072509415       -0.5774751031
 C          2.7232394798       -3.7094448958       -1.8503585910
 H          3.6139843627       -3.9209833435       -2.4470774883
 H          1.8765089723       -4.2017361008       -2.3348275450
 C          2.4483541187       -2.2048027543       -1.8846345958
 H          1.4134387714       -2.0109660763       -1.5919726695
 H          2.5391011892       -1.8671319551       -2.9197655094
 C          3.3714945097       -1.3563539328       -0.9882387697
 H          4.1769051857       -1.9641538409       -0.5777322277
 H          3.8113985601       -0.5486272287       -1.5772402104
 H          1.0471145455       -3.4658506916        0.1780485561
 H          1.6864225470       -4.7142734692        1.2386892700
 H          2.1640225455       -2.9476411041        2.5831439375
 H          3.6397105026       -2.8952395286        1.6153929126
 O          1.4385361493       -0.7961862576        2.1836896402
 C          0.9732682682        0.5027790863        2.0518712578
 O          0.2431022337        0.8769583574        2.9923686487
 O          2.3950063310        1.2526305401       -1.1918523718
 C          0.6669953565        2.5981295824        0.7669193268
 C         -0.0849462300        2.5632716644       -0.5414697219
 C          0.0955152646        3.4548305761       -1.5880601813
 C         -0.5827011439        3.2672753181       -2.7813983898
 C         -1.4265623279        2.1868399458       -2.9613528253
 C         -1.6215181877        1.2942904653       -1.9117642534
 C         -0.9814338350        1.5137681696       -0.7060842455
 H         -1.1306402900        0.8226075830        0.1105031007
 N         -2.4687315360        0.1850841799       -2.0428312706
 S         -2.2087618689       -1.2048020681       -1.1500465502
 O         -0.8072798882       -1.4883507582       -0.9487871642
 O         -2.9591979031       -2.2204223278       -1.8603499190
 C         -3.0177381010       -0.8737565995        0.3996447736
 C         -2.3530176311       -1.1003737120        1.5875055186
 C         -3.0036313148       -0.8375788118        2.7826048641
 C         -4.3052021036       -0.3612760528        2.7675362493
 C         -4.9639801660       -0.1478454433        1.5655845264
 C         -4.3166576355       -0.4052849111        0.3684073899
 H         -4.7924371800       -0.2514371466       -0.5856468001
 H         -5.9766644958        0.2219241478        1.5595442911
 H         -4.8064188702       -0.1543299913        3.6999317306
 H         -2.4806722283       -0.9921789139        3.7127648343
 H         -1.3342160864       -1.4570650054        1.5630280249
 H         -2.7919517820       -0.0086087468       -2.9788202561
 H         -1.9224438227        2.0251006009       -3.9063253456
 H         -0.4299668001        3.9603257251       -3.5949479830
 H          0.7896114802        4.2725975091       -1.4841961692
 H         -0.0769545836        2.6338366794        1.5802475469
 C          1.5581941988        3.8144629584        0.9493299267
 C          2.7943360612        3.7390089537        1.7943359734
 C          2.9089391481        3.9448567511        0.3152749054
 H          3.2103636839        4.9194258937       -0.0410247396
 H          3.2544533756        3.1275917067       -0.2963210565
 H          3.0206845150        4.5647745420        2.4521577575
 H          3.0619288041        2.7719683970        2.1958282063
 H          0.9752062148        4.7267033660        1.0351738243
