  62
        -98.94356041
 C          1.8423544800        0.2985365894       -0.2736259554
 C          2.9767647258        0.5123440038       -1.0917567264
 C          4.2656164099        0.5717748257       -0.3934301999
 C          4.3045224144        0.4507985475        0.9463072813
 C          5.5383639866        0.5228578702        1.8048095937
 C          6.3078725423       -0.8010757556        1.9087250534
 C          7.0720489421       -1.2106267346        0.6490518246
 H          7.7014207022       -0.3824860495        0.3216346649
 H          7.7347305322       -2.0318920841        0.9291916010
 C          6.1787616894       -1.6712774302       -0.5112418646
 H          5.1815817268       -1.9064140922       -0.1323467069
 H          6.5833226546       -2.5909927559       -0.9397389100
 C          6.0483767980       -0.6603209206       -1.6504527719
 H          7.0208054789       -0.5165926315       -2.1267662193
 H          5.3652296774       -1.0719435808       -2.3978278138
 C          5.5088202675        0.7097528003       -1.2194594158
 H          6.2730862872        1.2593074778       -0.6702095034
 H          5.2492362280        1.2744457152       -2.1184628757
 H          7.0262292029       -0.6963872568        2.7250857577
 H          5.6062965955       -1.5922335768        2.1826349715
 H          5.2034996260        0.8055892858        2.8051466660
 H          6.2018560693        1.3017484206        1.4277516618
 O          3.1874953141        0.2659650912        1.6991649429
 C          1.9336471999        0.1682220716        1.1123186593
 O          1.0033773849       -0.0247853782        1.9168772455
 O          2.9137919088        0.6562795341       -2.3428106941
 C          0.4744158495        0.2094402324       -0.9225254086
 C         -0.4556755824        1.2598302103       -0.3676614692
 C          0.0219554210        2.5516608062       -0.1607468587
 C         -0.8020390913        3.5383382139        0.3431012521
 C         -2.1277047664        3.2652791563        0.6314980411
 C         -2.6204063659        1.9855886966        0.4125115489
 C         -1.7848086782        0.9914071786       -0.0794325266
 H         -2.1875570745        0.0055428825       -0.2410683772
 N         -3.9565107387        1.6739167017        0.7015296986
 S         -4.8270321274        0.6760529483       -0.3189477170
 O         -4.4174057524        0.8301715375       -1.6951610998
 O         -6.2126702417        0.9839405701       -0.0330936739
 C         -4.4836249807       -0.9771077934        0.2450936906
 C         -4.3499343496       -1.2136113865        1.5987962617
 C         -4.1289303353       -2.5112206707        2.0318666141
 C         -4.0552298935       -3.5460220612        1.1117140426
 C         -4.1981572320       -3.2929286341       -0.2436473911
 C         -4.4144979962       -1.9963285064       -0.6839233811
 H         -4.5192983609       -1.7528667420       -1.7293201875
 H         -4.1405592684       -4.0987055689       -0.9583757414
 H         -3.8837534113       -4.5549253368        1.4525961547
 H         -4.0135982746       -2.7111458323        3.0850255075
 H         -4.4089283591       -0.3872224143        2.2871967576
 H         -4.5133568552        2.4464820165        1.0364088262
 H         -2.7742387417        4.0358452783        1.0232710721
 H         -0.4124081904        4.5319672540        0.5067311586
 H          1.0549509080        2.7709253408       -0.3946483407
 H          0.6400924578        0.4347465560       -1.9874676041
 C         -0.0666394162       -1.2004804593       -0.8035752872
 C         -0.9700505611       -1.7613100774       -1.8594709027
 C          0.4420315073       -2.2491940083       -1.7452208555
 H          0.6152259584       -3.2445534454       -1.3649706465
 H          1.1553372186       -1.9370114040       -2.4941525859
 H         -1.7661202070       -2.4228953950       -1.5530294402
 H         -1.2253748044       -1.1220188393       -2.6914629012
 H         -0.2399731774       -1.4918436216        0.2266057301
