  62
        -98.94057925
 C         -2.3468218233        0.1239519316       -0.2802767782
 C         -3.5033937657        0.4681716030       -1.0199771502
 C         -4.7340266999       -0.2369630429       -0.6459524556
 C         -4.7006915099       -1.1653579832        0.3275964070
 C         -5.8673240007       -1.9865185186        0.8061572647
 C         -6.7416988682       -1.2785859719        1.8503009555
 C         -7.6162052873       -0.1476323160        1.3075108091
 H         -8.1896916934       -0.5108959682        0.4541996388
 H         -8.3291011721        0.1110179880        2.0929462928
 C         -6.8414324396        1.1164039052        0.9093248157
 H         -5.8469381663        1.0923769631        1.3610337401
 H         -7.3513327470        1.9968719617        1.3068453510
 C         -6.6941098642        1.3210341909       -0.5984635162
 H         -6.0987285961        2.2224194662       -0.7649133885
 H         -7.6781314166        1.4800994142       -1.0449927938
 C         -6.0081614378        0.1592136569       -1.3291025436
 H         -6.6840490086       -0.6926016993       -1.3997296767
 H         -5.7541947046        0.4910249212       -2.3388209325
 H         -7.3951653742       -2.0336015847        2.2933510886
 H         -6.0957888660       -0.8920884120        2.6420327610
 H         -6.4817296806       -2.2813897371       -0.0448921258
 H         -5.4473655941       -2.8859880992        1.2613234406
 O         -3.5608719733       -1.4876458629        0.9960120862
 C         -2.3629075679       -0.8413630938        0.7261611177
 O         -1.4082197318       -1.2155219471        1.4335408319
 O         -3.5046656725        1.3171107815       -1.9517309376
 C         -1.0426652538        0.8352585666       -0.5870132914
 C          0.0305094240       -0.1556583721       -0.9634506633
 C         -0.2504942601       -1.1195260248       -1.9293217954
 C          0.7087249699       -2.0355330867       -2.3134814800
 C          1.9752867294       -2.0013035630       -1.7563501617
 C          2.2664383897       -1.0443432539       -0.7924057862
 C          1.2968620280       -0.1298965677       -0.4026146216
 H          1.5530893617        0.6005325051        0.3460937135
 N          3.5338750795       -0.9978602640       -0.1899440422
 S          4.1712779825        0.5056766199        0.2359321836
 O          3.6545248225        0.8897703790        1.5253624253
 O          3.9739285445        1.4511033419       -0.8397330337
 C          5.8999384839        0.0909723510        0.3833362561
 C          6.3293158249       -0.5587120770        1.5254937777
 C          7.6661746627       -0.9064792854        1.6354699229
 C          8.5466915397       -0.6006431275        0.6081422230
 C          8.1016198693        0.0531703232       -0.5308577696
 C          6.7652651585        0.4022040155       -0.6483084417
 H          6.3751489833        0.9177426550       -1.5110874558
 H          8.7891142755        0.2924246521       -1.3260450297
 H          9.5868919503       -0.8712603326        0.6974878433
 H          8.0164166253       -1.4125815247        2.5205701351
 H          5.6111408505       -0.7667774934        2.3015412397
 H          4.2165208635       -1.5747715887       -0.6620377034
 H          2.7268940365       -2.7144564762       -2.0590741055
 H          0.4727788835       -2.7786388370       -3.0605021450
 H         -1.2372367268       -1.1407592560       -2.3722526950
 H         -1.2504008001        1.4604385662       -1.4692147789
 C         -0.6531154999        1.7389986047        0.5636843336
 C          0.1869086949        2.9551903758        0.3172273191
 C         -1.2637790408        3.1034776904        0.6621918621
 H         -1.5265084476        3.4819639557        1.6386251077
 H         -1.9477380908        3.3974732010       -0.1206526836
 H          0.9285475323        3.2253669633        1.0545690617
 H          0.4944192090        3.1517964588       -0.6990875760
 H         -0.4967073757        1.1923690185        1.4879173156
