  62
        -98.93690164
 C         -2.2601766717       -0.7754127046       -0.0195219483
 C         -2.4583972526        0.2718562413        0.9055556127
 C         -2.3869895341        1.6461720926        0.3782228450
 C         -2.1059453273        1.8293999116       -0.9245927650
 C         -1.9662839796        3.1241308636       -1.6852897452
 C         -1.1362611987        4.2261273612       -1.0085742182
 C         -1.9755161544        5.4146759832       -0.5358304160
 H         -1.3303146168        6.2935039778       -0.4717590632
 H         -2.7369824854        5.6221852912       -1.2903569430
 C         -2.6475516037        5.2348189853        0.8240214110
 H         -3.3181294002        6.0837507804        0.9762199906
 H         -1.8890596502        5.2733806650        1.6088961500
 C         -3.4476504367        3.9416862648        0.9929472008
 H         -4.1812890628        4.1047554053        1.7852029106
 H         -4.0042665452        3.7135443870        0.0849346302
 C         -2.5889957357        2.7341934730        1.3978293809
 H         -1.6060431838        3.0692769749        1.7442700976
 H         -3.0476426103        2.2270137383        2.2528616169
 H         -0.4116826536        4.5919808729       -1.7380807351
 H         -0.5683536972        3.8025585687       -0.1805240151
 H         -1.5050375283        2.8429442113       -2.6346646985
 H         -2.9647826998        3.5014880323       -1.9199786100
 O         -1.9279645782        0.7860564869       -1.7851080843
 C         -1.9747938247       -0.5287802536       -1.3615167890
 O         -1.7662761155       -1.3687594415       -2.2584225584
 H          0.1094796129       -1.0551069487        0.8759671662
 C          0.2272919227       -2.0486814911        0.4667128821
 C         -0.8972522354       -2.8197137477        0.1997680207
 C         -0.7177254298       -4.0996107249       -0.3081808762
 C          0.5557928571       -4.5734573318       -0.5739679439
 C          1.6684016756       -3.7836644084       -0.3528456899
 C          1.4998362423       -2.5081821117        0.1757904350
 N          2.6069156958       -1.6808053045        0.4381072975
 S          2.4178708430       -0.0139295229        0.2372847986
 O          1.8215121143        0.5334047885        1.4315346499
 O          1.7466921536        0.2762874566       -1.0096384450
 C          4.1302059282        0.4794225682        0.1530763099
 C          4.8614392005        0.5212431890        1.3255451801
 C          6.2020035879        0.8671253847        1.2668473342
 C          6.7861160178        1.1639333853        0.0441024392
 C          6.0391210502        1.1204604641       -1.1233561274
 C          4.6978864416        0.7731396901       -1.0719253973
 H          4.0749909960        0.7304381764       -1.9512309947
 H          6.4942697914        1.3547785660       -2.0721145475
 H          7.8294775246        1.4335262385        0.0010818734
 H          6.7849527775        0.9048104519        2.1728232990
 H          4.3611334264        0.2917175599        2.2518044599
 H          3.4514169602       -2.0081129692       -0.0119289246
 H          2.6580602156       -4.1461120994       -0.5857218997
 H          0.6815081663       -5.5668519312       -0.9772094487
 H         -1.5750137240       -4.7204832190       -0.5105528971
 C         -2.2512746026       -2.2107949502        0.4730479258
 H         -2.3898404295       -2.1490068398        1.5632862757
 C         -3.4008959668       -2.9945747886       -0.1240515930
 C         -4.0164432429       -4.1318160270        0.6339722105
 C         -4.7660752502       -2.8444426632        0.4752120341
 H         -5.6189218580       -2.8189108640       -0.1861959615
 H         -4.8593090410       -2.1948038132        1.3333121519
 H         -3.6084195657       -4.3622116793        1.6064540703
 H         -4.3595767433       -4.9935314345        0.0816320219
 H         -3.3325735661       -3.0704564840       -1.2035195375
 O         -2.6882461452        0.0688655518        2.1308222282
