  62
        -98.94442190
 C         -1.9448223041       -0.8703996626        0.0573149798
 C         -2.4018516693        0.4617532290        0.2007924048
 C         -3.8169725501        0.6106171891        0.5658668979
 C         -4.5768844647       -0.4812977885        0.7664234919
 C         -6.0286478776       -0.4901804574        1.1620279286
 C         -6.9976211840       -0.3322093661       -0.0177551380
 C         -7.0574562218        1.0687481892       -0.6278299678
 H         -7.9247578419        1.0927859972       -1.2906456246
 H         -7.2309889642        1.8007234471        0.1615738484
 C         -5.8111713590        1.4630835931       -1.4327469639
 H         -6.1164861967        1.9137295822       -2.3798642988
 H         -5.2352340647        0.5672461722       -1.6762540555
 C         -4.8934501774        2.4640757905       -0.7305812770
 H         -4.0266867260        2.6435139127       -1.3720542295
 H         -5.4174983297        3.4136918516       -0.6007398028
 C         -4.3802886515        1.9976731151        0.6381078603
 H         -3.5737547457        2.6667126371        0.9485339712
 H         -5.1802237785        2.0471893387        1.3766004303
 H         -7.9956349498       -0.5901664764        0.3438766041
 H         -6.7272612068       -1.0548742944       -0.7910591280
 H         -6.2161032427       -1.4570930631        1.6338735005
 H         -6.2139156742        0.2958919340        1.8945398050
 O         -4.0893086889       -1.7450723884        0.6475951007
 C         -2.7741484993       -1.9706346293        0.2752182249
 O         -2.4649930142       -3.1760611935        0.1834319095
 H          1.5362486361        0.7016903576       -0.7492777204
 C          1.4135022212        0.4031439487        0.2775864047
 C          0.4330676488       -0.5050779837        0.6418299035
 C          0.3012918589       -0.8420072361        1.9874511338
 C          1.1173041582       -0.2696537345        2.9426252159
 C          2.0908251035        0.6437097310        2.5757827846
 C          2.2347731836        0.9834904355        1.2366281535
 N          3.1992949706        1.9247708796        0.8445913201
 S          4.1532887351        1.6796500146       -0.5038336178
 O          5.2197757126        2.6471525220       -0.3698255824
 O          3.3641955295        1.7621818803       -1.7054715843
 C          4.8023908862        0.0319454942       -0.2947796701
 C          4.1777697583       -1.0340904209       -0.9091274073
 C          4.6597872909       -2.3134473245       -0.6802883001
 C          5.7501733603       -2.5036730938        0.1541475705
 C          6.3692045699       -1.4212175756        0.7611516469
 C          5.8899348831       -0.1407068118        0.5395956272
 H          6.3488456714        0.7284383977        0.9822845342
 H          7.2202171832       -1.5720596167        1.4056046977
 H          6.1207641658       -3.5013558226        0.3293544191
 H          4.1808409023       -3.1558119634       -1.1536054208
 H          3.3360465696       -0.8477450021       -1.5551191172
 H          3.7439469984        2.3052154841        1.6044546799
 H          2.7234809314        1.1004511571        3.3216391063
 H          0.9971780356       -0.5356924771        3.9820177043
 H         -0.4631184851       -1.5525036063        2.2724470521
 C         -0.5072538568       -1.1419535523       -0.3516922596
 H         -0.3786905475       -2.2326623544       -0.2952817005
 C         -0.2819499396       -0.6996694242       -1.7819648846
 C          0.7381356963       -1.3927836588       -2.6323534294
 C         -0.7228432837       -1.5977419304       -2.8969705724
 H         -1.1580284793       -1.1504084634       -3.7780787075
 H         -1.1643049579       -2.5456011376       -2.6244469365
 H          1.2829663181       -2.2117804160       -2.1870414713
 H          1.3114476730       -0.8033700063       -3.3330017610
 H         -0.4228528188        0.3664556319       -1.9206614136
 O         -1.6729157501        1.4742861596        0.0362337195
