  62
        -98.94354978
 C         -0.1718477229       -1.9003185886       -0.1564660397
 C         -1.3387947431       -2.1453121013        0.5996920864
 C         -2.5581637832       -1.4361872826        0.1779656436
 C         -2.5013208198       -0.5891928956       -0.8667259976
 C         -3.5876076702        0.2255916269       -1.5371445893
 C         -4.8983212911        0.5252102709       -0.8143578132
 C         -4.7595793714        1.3936677651        0.4347283821
 H         -5.7481199486        1.4908923792        0.8898652349
 H         -4.4328177449        2.3932430677        0.1359060800
 C         -3.7816483185        0.8855708526        1.4922872054
 H         -3.8290336621        1.5674496289        2.3466260958
 H         -2.7557272625        0.9364930394        1.1190170638
 C         -4.0518422361       -0.5262101555        2.0111416632
 H         -5.0846986076       -0.5990339962        2.3583211924
 H         -3.3965826895       -0.6822114785        2.8725879494
 C         -3.7836712383       -1.6681124577        1.0131591465
 H         -4.6484715768       -1.8535929723        0.3797863045
 H         -3.5962730178       -2.5797714247        1.5882368130
 H         -5.4197801644       -0.3963216859       -0.5734413957
 H         -5.5269599336        1.0694317495       -1.5246578925
 H         -3.8209237672       -0.2947967139       -2.4727591424
 H         -3.1143148351        1.1712465042       -1.8162011602
 O         -1.3483394390       -0.3823977685       -1.5664103563
 C         -0.1604220953       -1.0080234595       -1.2271599979
 O          0.8094183801       -0.6940930486       -1.9412004055
 O         -1.3664131781       -2.9333309162        1.5855343425
 C          1.1265656434       -2.5735381991        0.2399926949
 C          2.1995408152       -1.5515535352        0.5281824158
 C          3.5490843618       -1.7993439054        0.3038366232
 C          4.4973788138       -0.8330029143        0.5901268637
 C          4.1239243996        0.4036980894        1.0838978247
 C          2.7768887985        0.6598461943        1.3138136252
 C          1.8340690621       -0.3215480676        1.0573304287
 H          0.7946607058       -0.1100114238        1.2589784148
 N          2.3486478991        1.9048942063        1.8032150941
 S          0.9204694416        2.5788498070        1.2715531831
 O          1.0247195275        3.9712004830        1.6623819217
 O         -0.2106541683        1.8699311012        1.8172138915
 C          0.8896996122        2.4956139111       -0.5108215031
 C         -0.3483070382        2.5364538599       -1.1181649410
 C         -0.4213441856        2.5496794346       -2.5006364280
 C          0.7420259007        2.5166048996       -3.2512779903
 C          1.9777777339        2.4786375488       -2.6278878581
 C          2.0572752675        2.4763725935       -1.2449384536
 H          3.0125451352        2.4422650103       -0.7474641188
 H          2.8820958549        2.4432449257       -3.2137618191
 H          0.6832216551        2.5122990045       -4.3282616291
 H         -1.3827187314        2.5743402371       -2.9891961604
 H         -1.2283869667        2.5428649299       -0.4930410547
 H          3.0715567801        2.6021572653        1.9052335691
 H          4.8623517750        1.1633521868        1.2911875851
 H          5.5416252503       -1.0404320561        0.4131585928
 H          3.8574301005       -2.7505409666       -0.0982596874
 H          0.9060134716       -3.1143673360        1.1733663879
 C          1.5424995392       -3.5778779129       -0.8175310619
 C          2.2241099509       -4.8563439223       -0.4331386118
 C          0.8033062561       -4.8782625758       -0.9078472010
 H          0.5882270637       -5.2835562938       -1.8850836565
 H          0.0224987434       -5.0526591461       -0.1817669374
 H          2.9864335165       -5.2513451006       -1.0877770354
 H          2.4064445011       -5.0321086238        0.6164254710
 H          1.8314453321       -3.1006941300       -1.7473134997
