  62
        -98.93835977
 C          2.4213310161       -1.2156586324        0.0704049254
 C          3.1510951064       -0.4650362868       -0.8783174652
 C          3.9835642945        0.6317582895       -0.3547931667
 C          3.9943999002        0.8781060058        0.9689938525
 C          4.7699206237        1.8911575544        1.7851747898
 C          5.4444035160        3.0854272734        1.1146490462
 C          4.4842870841        4.0992569396        0.4936783432
 H          3.9405418670        4.6021301186        1.2973235925
 H          5.0760311412        4.8531870677       -0.0299854372
 C          3.4504165807        3.5233156099       -0.4709587771
 H          2.7801602074        2.8505638742        0.0688534526
 H          2.8413091491        4.3519296373       -0.8430097202
 C          4.0233835899        2.7883660729       -1.6817127665
 H          4.7283680932        3.4367778209       -2.2053927683
 H          3.1934469946        2.5800104582       -2.3631105294
 C          4.7187934568        1.4493421300       -1.3773871405
 H          5.7531909475        1.5991690201       -1.0777388291
 H          4.7260125108        0.8570985855       -2.2971705236
 H          6.1669898676        2.7467552132        0.3781058007
 H          6.0079075206        3.6020999876        1.8962602907
 H          4.0715607299        2.2551108915        2.5453308959
 H          5.5355314198        1.3181095358        2.3197438974
 O          3.2609461734        0.1320337402        1.8460194333
 C          2.4535443548       -0.9146370623        1.4308417159
 O          1.8315784271       -1.4785008273        2.3494644702
 O          3.1108326580       -0.6991434125       -2.1177340634
 C          1.5381938620       -2.3531918062       -0.4062611000
 C          0.0925087442       -2.0686054739       -0.0770208539
 C         -0.7712766170       -3.0176140706        0.4530894537
 C         -2.0906682333       -2.6934303003        0.7196076695
 C         -2.5776501869       -1.4253446837        0.4637109592
 C         -1.7268990098       -0.4717409566       -0.0806435572
 C         -0.4082285397       -0.8014475449       -0.3514202714
 H          0.2521107724       -0.0567585540       -0.7803263329
 N         -2.2090801048        0.8244468455       -0.3381289908
 S         -3.6079251064        0.9756186590       -1.2567630389
 O         -3.7575110836       -0.1286240814       -2.1761756928
 O         -3.5329746245        2.2956695964       -1.8439617251
 C         -4.9177747678        0.9495002265       -0.0516606499
 C         -5.9303469875        0.0159536175       -0.1548340996
 C         -6.9437736880        0.0199410383        0.7910802454
 C         -6.9270079608        0.9529298734        1.8165084863
 C         -5.9040589061        1.8856013964        1.9042111801
 C         -4.8884443542        1.8875749066        0.9615812614
 H         -4.0774184983        2.5960443270        0.9918610804
 H         -5.8943109876        2.6094111992        2.7031893737
 H         -7.7157400558        0.9535608010        2.5521414659
 H         -7.7399614172       -0.7039587979        0.7248305422
 H         -5.8982749068       -0.6932585427       -0.9664947492
 H         -1.4989497674        1.4584780543       -0.6750179409
 H         -3.6018727137       -1.1678453420        0.6781355674
 H         -2.7483927334       -3.4398258190        1.1380395603
 H         -0.4110800538       -4.0113822603        0.6618797596
 H          1.6383098313       -2.3613224708       -1.5025685318
 C          2.0365768482       -3.6756419946        0.1372243738
 C          1.8301826035       -4.9397804460       -0.6408926428
 C          3.1990766790       -4.3398934250       -0.5355578533
 H          3.9359983264       -4.8353487659        0.0784227857
 H          3.6136891146       -3.8512266210       -1.4053953912
 H          1.6298951128       -5.8520751743       -0.0995730620
 H          1.3168248492       -4.8660226606       -1.5878030230
 H          1.9906387867       -3.7235025908        1.2192886145
