  62
        -98.94477193
 C         -1.9165934379       -1.0082503689       -0.2816536790
 C         -3.0474366141       -1.2031577991        0.5537732086
 C         -4.3120548445       -0.6246453792        0.0844439788
 C         -4.3344898012        0.0427005155       -1.0835206555
 C         -5.5389151154        0.7309493303       -1.6557763319
 C         -5.6106220901        2.1957645641       -1.2020610830
 C         -5.4339121941        2.3857300138        0.3045420722
 H         -4.4170569529        2.0993754248        0.5835961806
 H         -5.5334917674        3.4535913391        0.5112128753
 C         -6.4354901352        1.6026789888        1.1649835980
 H         -7.2899111721        1.3018369151        0.5575729178
 H         -6.8122081303        2.2618807010        1.9498997356
 C         -5.8491505168        0.3723941505        1.8599270919
 H         -4.9376992224        0.6533383960        2.3936542116
 H         -6.5710520730        0.0265830211        2.6045461624
 C         -5.5265350749       -0.8180840911        0.9480682775
 H         -5.3052171139       -1.6766103099        1.5887882816
 H         -6.3986398981       -1.0607600884        0.3375539778
 H         -4.8228850569        2.7555525424       -1.7117606365
 H         -6.5734381934        2.6062338256       -1.5119159170
 H         -6.4361524794        0.1992984577       -1.3448299042
 H         -5.4680636127        0.7002235032       -2.7443742541
 O         -3.2352939907        0.2046017108       -1.8606208281
 C         -1.9996269657       -0.3012549894       -1.4811843918
 O         -1.0902308142       -0.0589299661       -2.2988062520
 O         -2.9994670599       -1.8376272309        1.6407962020
 C         -0.5920290838       -1.5813529574        0.1964157678
 C          0.2861092418       -0.4594449728        0.6933965753
 C          0.2918214226       -0.1246898701        2.0435630174
 C          1.0797544857        0.9113550304        2.5125232453
 C          1.8743444221        1.6385600300        1.6437900007
 C          1.8655489619        1.3187433869        0.2926865348
 C          1.0867335815        0.2695742261       -0.1740717275
 H          1.0738983856        0.0422782098       -1.2286381858
 N          2.6758800552        2.0553790852       -0.5993188550
 S          4.3258974265        1.9344100078       -0.3304893195
 O          4.6664170364        2.6881048472        0.8495157862
 O          4.9580917233        2.3532468424       -1.5607847625
 C          4.5950134292        0.1950837382       -0.0453022581
 C          4.5864527027       -0.2908547554        1.2465148893
 C          4.7011098643       -1.6570478823        1.4472514727
 C          4.8209012265       -2.5082514864        0.3599282589
 C          4.8329429410       -2.0033370848       -0.9313436820
 C          4.7112712267       -0.6392489124       -1.1390788111
 H          4.7179170010       -0.2069003629       -2.1270452774
 H          4.9321438864       -2.6671413775       -1.7754412322
 H          4.9061043746       -3.5716950700        0.5188565936
 H          4.6929928470       -2.0522817977        2.4502230404
 H          4.4966089518        0.4044658119        2.0646124784
 H          2.4722720242        1.8491516051       -1.5674577676
 H          2.5021045398        2.4443515404        1.9889256877
 H          1.0751691432        1.1564080583        3.5637775473
 H         -0.3382602468       -0.6815355448        2.7224949828
 H         -0.8497176983       -2.2114715362        1.0579530534
 C          0.0955832862       -2.4411455017       -0.8450244581
 C          1.2619304256       -3.2850813690       -0.4284680592
 C         -0.0443255370       -3.9310596030       -0.7774272511
 H         -0.1178812426       -4.4825196411       -1.7027925755
 H         -0.6422225692       -4.3420165266        0.0227434994
 H          2.0897631262       -3.3919651101       -1.1118659214
 H          1.5523330247       -3.2514619304        0.6105571000
 H          0.1224704204       -1.9928652944       -1.8298240753
