  62
        -98.93723517
 C          1.4778187825        1.5600697969       -0.3031001402
 C          1.4125697379        0.2346737305        0.1973826207
 C          2.6649658986       -0.3017366051        0.7582972939
 C          3.7745089538        0.4562106345        0.7614786154
 C          5.1263903049        0.0009139019        1.2274415257
 C          5.9332584041       -0.6106896254        0.0730979085
 C          5.1620150471       -1.6515365608       -0.7389337009
 H          4.3360091802       -1.1586937779       -1.2566526966
 H          5.8404937873       -2.0315800908       -1.5059592386
 C          4.6143828926       -2.8239946920        0.0868166400
 H          5.1328094772       -2.8749675213        1.0450314471
 H          4.8248775553       -3.7543681789       -0.4449205186
 C          3.1044715711       -2.7783863353        0.3287724610
 H          2.5839188770       -2.6365973023       -0.6212628267
 H          2.7977932088       -3.7464341096        0.7330021001
 C          2.6199263897       -1.7007262082        1.3060385254
 H          1.5666092879       -1.9004561301        1.5228986840
 H          3.1856623958       -1.7663265041        2.2374853526
 H          6.8364292395       -1.0642216986        0.4857486309
 H          6.2357408159        0.1937778084       -0.6015457483
 H          5.6659113663        0.8652386847        1.6183932846
 H          5.0033111652       -0.7291724217        2.0250675600
 O          3.7982408201        1.7263613224        0.2816671709
 C          2.6615537891        2.3037680296       -0.2544067155
 O          2.8296949323        3.4754367495       -0.6530377755
 H         -1.7114305905        0.3954057060       -0.3721743462
 C         -1.7879698444        1.2941235225        0.2095264872
 C         -0.8741444014        2.3236158571        0.0448167707
 C         -0.9955633164        3.4463683488        0.8628331151
 C         -1.9973018050        3.5350502911        1.8103461047
 C         -2.9091080072        2.5059865289        1.9644504528
 C         -2.7956988511        1.3780711903        1.1614628115
 N         -3.6695932573        0.2974907794        1.3222584252
 S         -4.0535151472       -0.7172920580        0.0555663396
 O         -4.1975885902        0.0152766921       -1.1819395897
 O         -5.2410754136       -1.4118936493        0.5117722447
 C         -2.7127766724       -1.8810738948       -0.0494163610
 C         -2.1693049647       -2.3788970452        1.1166682984
 C         -1.1415169085       -3.3025523970        1.0326295712
 C         -0.6800573890       -3.7138390517       -0.2074622961
 C         -1.2422628764       -3.2103180548       -1.3687543379
 C         -2.2704918059       -2.2849885137       -1.2923481325
 H         -2.7228931883       -1.8540592864       -2.1721696776
 H         -0.8765486878       -3.5243714394       -2.3337336680
 H          0.1297296349       -4.4239562474       -0.2699103550
 H         -0.6958838794       -3.6918630060        1.9344296422
 H         -2.5428702162       -2.0279736306        2.0645198948
 H         -4.4334684323        0.4344996118        1.9660117868
 H         -3.6933714266        2.5696687307        2.7034555333
 H         -2.0719948813        4.4142539931        2.4324787432
 H         -0.2830270812        4.2525167479        0.7539275104
 C          0.2828100818        2.2827958074       -0.9215848369
 H          0.6281233337        3.3225984272       -1.0255667979
 C          0.0250101067        1.8101023103       -2.3501253770
 C         -0.3456260595        0.4123221253       -2.7435049539
 C         -1.3258429670        1.5293140294       -2.9372650007
 H         -1.5149085476        1.8699041289       -3.9452082382
 H         -2.1953908313        1.5636391673       -2.2989672387
 H         -0.5162224166       -0.3082407122       -1.9604883157
 H          0.1351769621       -0.0065773430       -3.6168292560
 H          0.7308340771        2.2934076797       -3.0222275435
 O          0.3861045921       -0.4877449279        0.1886826083
