  62
        -98.94438591
 C         -2.3502854395       -0.5274760596        0.1786086390
 C         -3.4285163294       -0.5427773912        1.0954327492
 C         -4.4362243693        0.5106925992        0.9188905814
 C         -4.2676835093        1.4245167111       -0.0545352068
 C         -5.2395717393        2.5226522718       -0.3739537345
 C         -6.2548378895        2.0751293140       -1.4349397452
 C         -6.9050762996        0.7240253535       -1.1369619177
 H         -7.6218157098        0.5252421752       -1.9367293880
 H         -6.1428516197       -0.0569296665       -1.1875567694
 C         -7.6190415994        0.6480675510        0.2198601522
 H         -7.8125889192        1.6542953803        0.5931956242
 H         -8.5870581495        0.1627274614        0.0788144015
 C         -6.8709030793       -0.1530720312        1.2869714005
 H         -7.5541051192       -0.3269205927        2.1225096603
 H         -6.5926662795       -1.1298613605        0.8833192586
 C         -5.6103747791        0.5095176575        1.8570787216
 H         -5.8440905489        1.5241689169        2.1854802536
 H         -5.2956646290       -0.0706060142        2.7295069604
 H         -7.0268418194        2.8422005843       -1.5189792636
 H         -5.7411387597        2.0032508258       -2.3964738755
 H         -5.7567618391        2.8190847301        0.5365478161
 H         -4.6788951092        3.3768789125       -0.7573113730
 O         -3.2038420895        1.4232488826       -0.8986585570
 C         -2.2260996496        0.4427264023       -0.8154827991
 O         -1.3211090497        0.5448490239       -1.6663273891
 O         -3.5395187093       -1.3943453730        2.0177963075
 C         -1.2817023496       -1.6002128599        0.2878981368
 C          0.0628785805       -0.9577533006        0.5207848778
 C          0.2073787308       -0.0821531627        1.5947564595
 C          1.4126505609        0.5461136467        1.8370098705
 C          2.5050418307        0.3135023282        1.0182824998
 C          2.3721006704       -0.5541650597       -0.0555700518
 C          1.1587355303       -1.1906312591       -0.2929070829
 H          1.0732461601       -1.8596866675       -1.1347283642
 N          3.4761405902       -0.8190435782       -0.8797630225
 S          4.5019515303        0.4257433625       -1.3323639503
 O          3.8090823204        1.6874367728       -1.4506525577
 O          5.1640972601       -0.0580126652       -2.5246508314
 C          5.6884053606        0.5034973698       -0.0050617404
 C          6.2649909605       -0.6717319411        0.4356507073
 C          7.2002575907       -0.6158524732        1.4566777972
 C          7.5456753909        0.6066294656        2.0132860995
 C          6.9616833610        1.7780282666        1.5564875619
 C          6.0236183708        1.7288135787        0.5370381120
 H          5.5369796808        2.6126669795        0.1558649738
 H          7.2311810012        2.7280222657        1.9894508637
 H          8.2736869911        0.6469605240        2.8080830295
 H          7.6559165706       -1.5246457940        1.8155610154
 H          5.9715303203       -1.6014972802       -0.0219599045
 H          3.2711959500       -1.4254282267       -1.6605260737
 H          3.4448477708        0.8100071277        1.1957792506
 H          1.5064142611        1.2253518651        2.6708556318
 H         -0.6463466491        0.1052986962        2.2318406600
 H         -1.5427792996       -2.1815767516        1.1843634957
 C         -1.3306204300       -2.5156958276       -0.9169905250
 C         -0.8272992201       -3.9238806478       -0.8158655078
 C         -2.2985773701       -3.6593402075       -0.9189773171
 H         -2.8052537703       -3.9039249656       -1.8406160575
 H         -2.9075992800       -3.7945032691       -0.0371983772
 H         -0.3247372003       -4.3551810462       -1.6686594388
 H         -0.4361969300       -4.2463011097        0.1370184215
 H         -1.1866409101       -1.9837521758       -1.8513834640
