  62
        -98.94096126
 C         -1.0883700486       -1.4712054207        0.0512993794
 C         -1.5446432390       -0.5003429814        0.9735584500
 C         -2.4855028198        0.5137479982        0.4668205907
 C         -2.8179994302        0.5040158285       -0.8376114193
 C         -3.7408501910        1.3923438082       -1.6468480286
 C         -4.6098070615        2.4417246473       -0.9595119680
 C         -5.7776441609        1.8651915662       -0.1574408379
 H         -6.2426064214        2.6753562056        0.4080851326
 H         -6.5217606308        1.4824003660       -0.8605064479
 C         -5.4253290599        0.7279281260        0.7983445315
 H         -5.0011602895       -0.1066585535        0.2367640710
 H         -6.3545253695        0.3716632351        1.2513459115
 C         -4.4707642299        1.0995110361        1.9303884014
 H         -4.4057969291        0.2407904959        2.6042920510
 H         -4.8813719303        1.9373883556        2.4974651019
 C         -3.0418755702        1.4589288073        1.4931280212
 H         -2.9870943210        2.4867977175        1.1449405717
 H         -2.3901661300        1.3752173974        2.3676296610
 H         -5.0322820422        3.0673505174       -1.7503628876
 H         -3.9998008218        3.0907551175       -0.3380519878
 H         -4.3856297606        0.7153292381       -2.2169230088
 H         -3.1027175215        1.8912388490       -2.3842363486
 O         -2.2718586997       -0.3928361107       -1.7093529798
 C         -1.4046598889       -1.3936079003       -1.3038072405
 O         -1.0039482787       -2.1206238796       -2.2310179209
 O         -1.1827745987       -0.4824217117        2.1814639699
 C         -0.1680310077       -2.5692963603        0.5606998587
 C          1.2393275020       -2.2318883791        0.1376773785
 C          1.8878744721       -2.8369437482       -0.9305414519
 C          3.1563198718       -2.4241004571       -1.3035601220
 C          3.8040667812       -1.4106059870       -0.6200258517
 C          3.1616842211       -0.8008862079        0.4499765087
 C          1.8913016114       -1.2111450690        0.8205825288
 H          1.3839877113       -0.7260249597        1.6447489692
 N          3.8116523305        0.2488992522        1.1419708490
 S          3.9454785993        1.6848752227        0.2925638096
 O          4.7114303592        1.4437680238       -0.9025466207
 O          4.4898864189        2.6458633427        1.2236978599
 C          2.2722546489        2.1355904317       -0.1325418698
 C          1.6625546891        1.5142025618       -1.2043129799
 C          0.3506992888        1.8402877810       -1.5073397994
 C         -0.3245780917        2.7750500002       -0.7380593588
 C          0.2981370581        3.3817070102        0.3412376113
 C          1.6078395784        3.0561289909        0.6526221808
 H          2.1325554383        3.5080996809        1.4790984509
 H         -0.2330792922        4.1039968495        0.9398852917
 H         -1.3422716119        3.0318085696       -0.9840042585
 H         -0.1394184511        1.3547800511       -2.3372547295
 H          2.2164107394        0.7964372224       -1.7880584904
 H          3.3900850806        0.4433531915        2.0403608992
 H          4.7837239509       -1.0675546762       -0.9100651718
 H          3.6473809119       -2.8992210264       -2.1393826124
 H          1.3917108026       -3.6176597483       -1.4828861521
 H         -0.2125471975       -2.4982389808        1.6563171188
 C         -0.6238522268       -3.9504773104        0.1447214782
 C         -0.0611585358       -5.1475939203        0.8491572875
 C         -1.4872593260       -4.7470274014        1.0746589581
 H         -2.2690742157       -5.3602402118        0.6521950580
 H         -1.7486111661       -4.3006889520        2.0231117283
 H          0.1384736447       -6.0386696099        0.2740911471
 H          0.6474173943       -4.9699001702        1.6440874374
 H         -0.8305836970       -4.0354983901       -0.9145887318
