  62
        -98.93806109
 C          2.2535187193        1.0371337998       -0.4577478098
 C          3.6463793693        1.0853645602       -0.1819035398
 C          4.4180537597       -0.1195489595       -0.5019635899
 C          3.7920035600       -1.1935121897       -1.0150383300
 C          4.4393667004       -2.4924561494       -1.4116919002
 C          4.6332956106       -3.4728514295       -0.2469083903
 C          5.7343149405       -3.0945867793        0.7446324898
 H          5.9083085008       -3.9669397893        1.3776822097
 H          6.6588218105       -2.8968317389        0.2012682298
 C          5.3948561502       -1.8952723695        1.6408545399
 H          4.3169442201       -1.7166554998        1.6180985499
 H          5.6565428802       -2.1283526395        2.6755319799
 C          6.1203338398       -0.6013113192        1.2710308000
 H          7.1947936198       -0.7284967489        1.4203057200
 H          5.7775593996        0.1876642606        1.9452896301
 C          5.8795237597       -0.1304815591       -0.1692549199
 H          6.2504725294        0.8932128310       -0.2613185298
 H          6.4238342699       -0.7648458189       -0.8684723600
 H          3.6839528007       -3.5764265098        0.2842173397
 H          4.8804084309       -4.4459419194       -0.6776818204
 H          3.7784498105       -2.9576633196       -2.1462276302
 H          5.4010799903       -2.2931557091       -1.8852855001
 O          2.4559504600       -1.2090639000       -1.2547791501
 C          1.6474092097       -0.1137487403       -0.9664176199
 O          0.4455352097       -0.3105070606       -1.2258895000
 O          4.2196373590        2.0940356503        0.3081554903
 C          1.4386074390        2.2665449796       -0.0898417297
 C          0.2969873891        1.8602027791        0.8054029002
 C          0.5312194391        1.6481300791        2.1606394102
 C         -0.4816440307        1.2056537387        2.9911133802
 C         -1.7438669907        0.9520873384        2.4838886401
 C         -1.9819252507        1.1473021985        1.1303629601
 C         -0.9713538808        1.6191197588        0.3030403402
 H         -1.1611588009        1.7554137489       -0.7501182998
 N         -3.2579644006        0.8748913681        0.6010653701
 S         -4.0112395502       -0.5393961421        1.1388712600
 O         -4.7180053703       -0.2345750925        2.3598138800
 O         -3.0618133299       -1.6261638519        1.2220421799
 C         -5.1777949801       -0.8300285823       -0.1763199101
 C         -6.4768760403       -0.3777468627       -0.0483051200
 C         -7.3655974902       -0.5919734129       -1.0901544201
 C         -6.9419212900       -1.2485900027       -2.2357073601
 C         -5.6338150099       -1.6959854623       -2.3498918202
 C         -4.7397541899       -1.4850443121       -1.3122225001
 H         -3.7157516798       -1.8230537318       -1.3557985902
 H         -5.3063834797       -2.2073353521       -3.2409122302
 H         -7.6347155599       -1.4155919828       -3.0452956401
 H         -8.3834566003       -0.2473229932       -1.0053286500
 H         -6.7601960604        0.1213657671        0.8635518400
 H         -3.2504795706        0.9083934382       -0.4097574599
 H         -2.5389725906        0.5830291881        3.1121929601
 H         -0.2867692307        1.0466020687        4.0413223301
 H          1.5235398891        1.8213673393        2.5544146702
 H          2.1344318588        2.8813535597        0.5034592103
 C          0.9986647087        3.1283363796       -1.2636013396
 C          1.9328601387        3.3787986099       -2.4088305896
 C          0.6812191989        2.5843210096       -2.6227474397
 H         -0.1257902712        3.0436077594       -3.1752601697
 H          0.7647727892        1.5205559996       -2.7780506198
 H          1.9913819784        4.3744522100       -2.8216838395
 H          2.8754190188        2.8507439402       -2.4010719797
 H          0.4029892285        3.9737498093       -0.9321383996
