  62
        -98.94440049
 C         -2.0609509027       -1.3615241023        0.0122366867
 C         -2.3860697709       -0.3875190730       -0.9628863435
 C         -3.7516962826        0.1510119374       -0.8987387928
 C         -4.6128714081       -0.2959680895        0.0321963481
 C         -6.0423729846        0.1400236598        0.2045032616
 C         -6.2088458973        1.4245298238        1.0277837242
 C         -5.7829749347        2.7110063692        0.3192107419
 H         -6.2731515897        2.7689190924       -0.6532003000
 H         -6.1521665880        3.5445389920        0.9200353479
 C         -4.2656856930        2.8648865472        0.1435177744
 H         -3.9667874652        3.8768322251        0.4266226229
 H         -3.7482689797        2.1796907673        0.8193731408
 C         -3.7645465382        2.6272421083       -1.2811048493
 H         -2.6759028832        2.7270796586       -1.2805187344
 H         -4.1717252360        3.3933694860       -1.9448473231
 C         -4.1161292730        1.2478514660       -1.8536873175
 H         -5.1769306323        1.2024796313       -2.0987332419
 H         -3.5384082547        1.0992499277       -2.7692373964
 H         -7.2667178170        1.5109524740        1.2863768860
 H         -5.6468750917        1.3186047903        1.9586820683
 H         -6.5069564279        0.2703725043       -0.7733022283
 H         -6.5532454305       -0.6717367874        0.7268986786
 O         -4.2703363258       -1.2455586262        0.9415816961
 C         -2.9949741527       -1.7807210322        0.9666503458
 O         -2.8159575785       -2.6234530062        1.8684389677
 H          0.3628567303        0.2700720262       -0.8825576032
 C          0.7592472544        0.0367763230        0.0942559302
 C          0.3082972426       -1.0956798690        0.7577372529
 C          0.8101676853       -1.3681374895        2.0250460224
 C          1.7352451946       -0.5240868004        2.6148731573
 C          2.1809027451        0.6048358680        1.9516892190
 C          1.6826712254        0.8862012617        0.6857870051
 N          2.1415462233        2.0253755276       -0.0012258395
 S          3.8030759388        2.2121791183       -0.1022810763
 O          4.2930234157        2.8202532928        1.1100908317
 O          4.0372832201        2.9573735402       -1.3191781255
 C          4.4385243393        0.5506886232       -0.2441555032
 C          5.2326122444        0.0270698090        0.7552779952
 C          5.6674188347       -1.2843454028        0.6477553598
 C          5.2985292652       -2.0462637462       -0.4496057245
 C          4.5038697922       -1.5037867965       -1.4479169372
 C          4.0664452254       -0.1937435943       -1.3461622494
 H          3.4493967080        0.2577797115       -2.1065990511
 H          4.2199675069       -2.0973077753       -2.3020760960
 H          5.6312285866       -3.0690983212       -0.5292776447
 H          6.2872001204       -1.7080100358        1.4214644042
 H          5.4930882995        0.6535367164        1.5926437828
 H          1.7050539282        2.1494701834       -0.9033757126
 H          2.8989197610        1.2760521028        2.3947171726
 H          2.1135631930       -0.7475747447        3.6006264645
 H          0.4581707976       -2.2427373551        2.5527385005
 C         -0.6934963371       -2.0218361681        0.1102082765
 H         -0.8311037006       -2.8819936055        0.7783525417
 C         -0.1867510300       -2.5301422969       -1.2264632138
 C          0.9124915589       -3.5474554184       -1.2437625436
 C         -0.4804968897       -3.9417145203       -1.6316814495
 H         -0.6911965817       -4.1456777632       -2.6708809679
 H         -1.0500696185       -4.5511395307       -0.9449672574
 H          1.2906188621       -3.8900348403       -0.2927012131
 H          1.6610047032       -3.4825210780       -2.0179206546
 H         -0.1940280782       -1.7802087619       -2.0057806721
 O         -1.6001206325        0.0255793211       -1.8577431726
