  62
        -98.94428018
 C         -2.1189515998       -1.3924155717       -0.0019896929
 C         -2.4386629500       -0.4246208158       -0.9848140828
 C         -3.7826621349        0.1666408256       -0.8925367836
 C         -4.6216330948       -0.2321361584        0.0797353303
 C         -5.9907731719        0.3321371668        0.3216142943
 C         -5.9408823131        1.5047811071        1.3110981614
 C         -4.8779284668        2.5515152789        0.9766777240
 H         -4.9571359548        3.3452033831        1.7228285466
 H         -3.8874251177        2.1042211576        1.0898291236
 C         -5.0026126376        3.1572743371       -0.4283643868
 H         -4.8743795835        4.2393683660       -0.3553220091
 H         -6.0031555964        2.9758337156       -0.8226643081
 C         -3.9635667405        2.6530420290       -1.4316704209
 H         -2.9633115847        2.7481858752       -1.0007175575
 H         -4.0020947074        3.2985735062       -2.3133521450
 C         -4.1476362142        1.2081602828       -1.9129845894
 H         -5.1721082610        1.0643897700       -2.2617365820
 H         -3.4717474533        1.0513597186       -2.7586651251
 H         -6.9242693860        1.9777568622        1.3358506509
 H         -5.7288228877        1.1090459214        2.3070515133
 H         -6.4166686308        0.6594417070       -0.6248177065
 H         -6.6188075391       -0.4568081366        0.7388516457
 O         -4.2897600917       -1.1771376364        0.9945558918
 C         -3.0389684927       -1.7671748365        0.9839445037
 O         -2.8666295323       -2.6099062079        1.8868167461
 H          0.2995424345        0.1832252030       -0.9368480687
 C          0.7157762091       -0.0615326257        0.0288798244
 C          0.2677281065       -1.1935986521        0.6949493391
 C          0.7984424766       -1.4825153772        1.9468464199
 C          1.7449028355       -0.6516208557        2.5211025650
 C          2.1830284904        0.4806409930        1.8584475729
 C          1.6595119415        0.7762186448        0.6058624142
 N          2.0999523361        1.9213507847       -0.0782707165
 S          3.7448306175        2.2203370229       -0.1152799462
 O          4.1439214005        2.8817804141        1.1028231226
 O          3.9733445488        2.9610999628       -1.3361051562
 C          4.5135805284        0.6118805434       -0.2029789082
 C          4.1800441737       -0.2151929792       -1.2573362335
 C          4.7458644748       -1.4778061703       -1.3225272556
 C          5.6307744726       -1.8904064482       -0.3380065201
 C          5.9595543989       -1.0463106399        0.7109309983
 C          5.3951107702        0.2172673113        0.7825215544
 H          5.6189279862        0.9040739405        1.5825629313
 H          6.6490534671       -1.3687003373        1.4744094349
 H          6.0657432762       -2.8759529130       -0.3903164568
 H          4.4912423997       -2.1358795100       -2.1376796121
 H          3.4906807015        0.1341988166       -2.0093333835
 H          1.6762703390        2.0401421710       -0.9867251488
 H          2.9097784897        1.1461296716        2.2957151492
 H          2.1441576917       -0.8862498141        3.4959401139
 H          0.4502052961       -2.3573601305        2.4764803899
 C         -0.7709285231       -2.0954124910        0.0711274821
 H         -0.9214230901       -2.9470163827        0.7474006175
 C         -0.3068130388       -2.6282093456       -1.2711010981
 C          0.7334401130       -3.7054523689       -1.3026675259
 C         -0.6840018086       -4.0205800885       -1.6739741182
 H         -0.9187146697       -4.2109095201       -2.7106031943
 H         -1.2784826751       -4.5979525184       -0.9806278860
 H          1.1029363219       -4.0714175127       -0.3568765395
 H          1.4746327620       -3.6817347345       -2.0863780842
 H         -0.2818648945       -1.8780884680       -2.0499040609
 O         -1.6611507533       -0.0537126764       -1.9056020470
