  62
        -98.94106845
 C         -2.6144067160       -1.3178027775        0.2358783353
 C         -2.3802623842       -0.2557139778       -0.6748460559
 C         -3.4429846718        0.7579279721       -0.7592219745
 C         -4.5645007646        0.6263459928       -0.0301378446
 C         -5.7397814556        1.5653503121       -0.0282898656
 C         -5.5695932286        2.7699455693        0.9075446288
 C         -4.5749458195        3.8292331158        0.4306506065
 H         -4.8182488761        4.1215081791       -0.5913212509
 H         -4.7152106037        4.7081125770        1.0629747504
 C         -3.1031893566        3.3982561487        0.5070514410
 H         -2.5095961950        4.2009829980        0.9503102882
 H         -3.0087180420        2.5319176137        1.1660872849
 C         -2.4691408740        3.0624800314       -0.8431435190
 H         -2.4336338664        3.9601695278       -1.4648573156
 H         -1.4397781754        2.7358394377       -0.6685659725
 C         -3.1933312268        1.9571090880       -1.6229874051
 H         -4.1302106922        2.3362153943       -2.0310416846
 H         -2.5502158755        1.6460988615       -2.4502010562
 H         -5.2694610359        2.4067575637        1.8931160077
 H         -6.5487528042        3.2429314899        1.0112211646
 H         -5.9324293058        1.9150074273       -1.0428363762
 H         -6.6009534380        0.9852757452        0.3102251785
 O         -4.7663204881       -0.4241503617        0.8083286632
 C         -3.7891938155       -1.3879916556        0.9923485574
 O         -4.0838394986       -2.2511905098        1.8428346063
 H          0.5442296816       -2.0267494887       -1.1614747892
 C          0.7214415375       -1.6203058459       -0.1780070519
 C         -0.2527796688       -1.7428785410        0.7989107923
 C         -0.0202849192       -1.1799919663        2.0499438407
 C          1.1628459790       -0.5161872110        2.3151517065
 C          2.1301156753       -0.3863847777        1.3337518561
 C          1.8971478208       -0.9259314984        0.0762304448
 N          2.8637378732       -0.7832440937       -0.9329687337
 S          3.6041705362        0.7087363449       -1.1362446543
 O          2.7615950089        1.8036251440       -0.7157822847
 O          4.0436351152        0.7253814226       -2.5149786839
 C          5.0380567190        0.6044934313       -0.0825316239
 C          5.3000362645        1.6109213429        0.8261785283
 C          6.4291491696        1.5168964166        1.6250884283
 C          7.2729976218        0.4240461942        1.5009869081
 C          6.9975234178       -0.5773845753        0.5817683352
 C          5.8711783095       -0.4885171190       -0.2203429467
 H          5.6234964868       -1.2431269658       -0.9479166903
 H          7.6560160809       -1.4258745020        0.4881960018
 H          8.1504803787        0.3526403738        2.1240781307
 H          6.6445782098        2.2950387316        2.3397076930
 H          4.6125141475        2.4394377131        0.8918248163
 H          2.5676639769       -1.1555181940       -1.8240311332
 H          3.0464967556        0.1470116404        1.5270147122
 H          1.3321511750       -0.0884424422        3.2917519492
 H         -0.7863053617       -1.2600397328        2.8094493332
 C         -1.5814141786       -2.3982219030        0.5186642329
 H         -1.9256582774       -2.8800856231        1.4474103970
 C         -1.4950827111       -3.4968616036       -0.5300353818
 C         -2.7451736795       -4.0599588280       -1.1360996171
 C         -1.7879859449       -3.2783703247       -1.9824528790
 H         -1.1918820935       -3.8149455047       -2.7067653435
 H         -2.0698087895       -2.2875755904       -2.3012285559
 H         -2.8135535688       -5.1271601379       -1.2833110404
 H         -3.6806196588       -3.5946781538       -0.8604077394
 H         -0.7087236747       -4.2086536768       -0.2968325865
 O         -1.3557909026       -0.1423736868       -1.3965647849
