  62
        -98.94578924
 C         -1.7102059821       -1.4697911847       -0.4317037939
 C         -1.4980575308       -0.2265831417       -1.0769598950
 C         -2.6523413377        0.6829275745       -1.1075439988
 C         -3.8318433191        0.2983508965       -0.5899420063
 C         -5.1053950289        1.0998717999       -0.5840175122
 C         -5.2160163837        2.0931289586        0.5803706596
 C         -4.3019725326        3.3150051521        0.4803460918
 H         -4.4364636031        3.7910152158       -0.4914677016
 H         -4.6317084296        4.0263735710        1.2402227381
 C         -2.8139514877        3.0096954818        0.7040827363
 H         -2.3846350278        3.7471188896        1.3864016755
 H         -2.7067030293        2.0357973094        1.1883027288
 C         -1.9586151160        3.0228349093       -0.5631045562
 H         -1.9319575004        4.0343584164       -0.9758858418
 H         -0.9390181036        2.7469572342       -0.2793525102
 C         -2.4381938303        2.0601777004       -1.6578564065
 H         -1.6624038854        1.9983764470       -2.4247925392
 H         -3.3533743549        2.4367813940       -2.1151699507
 H         -6.2509648859        2.4412786059        0.6151690658
 H         -5.0115294954        1.5625875586        1.5132992386
 H         -5.2054612873        1.6340228545       -1.5292853195
 H         -5.9235047995        0.3809779613       -0.5014622103
 O         -4.0099990102       -0.9219425515       -0.0174647765
 C         -2.9545025667       -1.8088620935        0.1091707866
 O         -3.2511619949       -2.8676436991        0.6997801978
 O         -0.4213564395        0.1232060095       -1.6249697964
 C         -0.6132983700       -2.5061677705       -0.2304465179
 C          0.1996590778       -2.1333712892        0.9877307769
 C          0.0380419601       -2.8404897256        2.1740744746
 C          0.7516915638       -2.4880532573        3.3051464299
 C          1.6323586999       -1.4229066330        3.2737176885
 C          1.7998957435       -0.7052846794        2.0929994663
 C          1.0925725000       -1.0703001648        0.9561662899
 H          1.2058915021       -0.4961768074        0.0526406672
 N          2.7083512620        0.3570474628        2.0430572935
 S          2.5110673770        1.6829397913        1.0382544166
 O          3.3025149727        2.7153069716        1.6785321837
 O          1.1198298278        1.9970851048        0.8271002976
 C          3.3361331358        1.1956859313       -0.4612916881
 C          4.7023442143        1.0013052008       -0.3846642125
 C          5.3910216150        0.6154988822       -1.5220358867
 C          4.7045581505        0.4315450362       -2.7134706175
 C          3.3352365806        0.6346090069       -2.7735953033
 C          2.6384467951        1.0229574311       -1.6384118970
 H          1.5693385423        1.1684365079       -1.6539881831
 H          2.7972377950        0.4895808635       -3.6970874903
 H          5.2391647849        0.1290277586       -3.6002886121
 H          6.4567118067        0.4581292214       -1.4780544153
 H          5.1967390099        1.1656249172        0.5583100966
 H          3.1200270394        0.6117229743        2.9281464740
 H          2.1858218558       -1.1419433479        4.1570378502
 H          0.6162240412       -3.0431456207        4.2212077185
 H         -0.6691320368       -3.6567666678        2.2072159794
 H         -1.1351059547       -3.4460769785       -0.0038600485
 C          0.2586239938       -2.7270669505       -1.4495714412
 C          1.0727492531       -3.9819762140       -1.5340692551
 C         -0.1129181197       -3.7952959605       -2.4315465881
 H          0.0558183320       -3.6098681927       -3.4815942796
 H         -1.0027424206       -4.3740676316       -2.2291821766
 H          2.0596640148       -3.9259291862       -1.9666536231
 H          0.9865145881       -4.6890890877       -0.7227261550
 H          0.6900252551       -1.8192740583       -1.8477255614
