  62
        -98.94348879
 C          1.8601563491        0.2704457884       -0.2468481207
 C          2.9731266918        0.4418987934       -1.1034946398
 C          4.2783769815        0.5455119972       -0.4419053254
 C          4.3509925548        0.4986175016        0.9010538802
 C          5.6057689940        0.6194885697        1.7228867577
 C          6.3809811320       -0.6960455436        1.8785477463
 C          7.1155281697       -1.1713868565        0.6243488829
 H          7.7345183460       -0.3610431011        0.2379050506
 H          7.7870302642       -1.9754671569        0.9319720072
 C          6.1961494644       -1.6951304943       -0.4878274289
 H          6.5936724977       -2.6353618737       -0.8765801367
 H          5.2091822157       -1.9121651654       -0.0730191494
 C          6.0346516339       -0.7465321869       -1.6756607102
 H          5.3354475180       -1.1991749593       -2.3834057752
 H          6.9948134209       -0.6256748568       -2.1822311801
 C          5.4999165662        0.6429645006       -1.3051647220
 H          6.2751354304        1.2236421950       -0.8055436318
 H          5.2153880154        1.1578290141       -2.2262846788
 H          7.1185880695       -0.5470575618        2.6705135855
 H          5.6882363175       -1.4723141233        2.2113087860
 H          6.2574800511        1.3775772359        1.2874442310
 H          5.2956387118        0.9555945746        2.7146238539
 O          3.2537694890        0.3522986832        1.6906321085
 C          1.9862014841        0.2184725658        1.1415789739
 O          1.0769037715        0.0687212161        1.9786675238
 O          2.8788205556        0.5142517143       -2.3588297969
 C          0.4778665651        0.1388587746       -0.8564261440
 C         -0.4461073533        1.2189802986       -0.3500387350
 C          0.0384020660        2.5149337873       -0.1914179711
 C         -0.7824737675        3.5265692818        0.2660640345
 C         -2.1125811136        3.2745924540        0.5526260713
 C         -2.6129239961        1.9910126890        0.3788285470
 C         -1.7801595729        0.9718084861       -0.0640037818
 H         -2.1890849306       -0.0169152522       -0.1900976150
 N         -3.9558174544        1.7010277039        0.6619296384
 S         -4.8271995931        0.7107432011       -0.3673092765
 O         -4.3801724664        0.8368319583       -1.7346957056
 O         -6.2114220996        1.0554158022       -0.1188671889
 C         -4.5391984867       -0.9425569284        0.2259871871
 C         -4.4721653324       -1.1667444616        1.5868090168
 C         -4.2972611556       -2.4635700772        2.0426159322
 C         -4.2029482757       -3.5097147150        1.1371641523
 C         -4.2784087651       -3.2686687262       -0.2258015614
 C         -4.4481158760       -1.9728783430       -0.6886026360
 H         -4.4995919841       -1.7390637248       -1.7400808694
 H         -4.2048857071       -4.0830049646       -0.9292796893
 H         -4.0681999005       -4.5181343203        1.4955238983
 H         -4.2346156542       -2.6544583871        3.1018930455
 H         -4.5471049948       -0.3315986471        2.2629402674
 H         -4.5046960481        2.4905472695        0.9698435509
 H         -2.7571300323        4.0646237769        0.9073042043
 H         -0.3867164387        4.5230611654        0.3936456981
 H          1.0745369493        2.7184013118       -0.4255477422
 H          0.6184208260        0.2959651220       -1.9372193226
 C         -0.0550891833       -1.2620672680       -0.6352598694
 C         -0.9559780055       -1.9050487046       -1.6453955237
 C          0.4600422255       -2.3725774428       -1.4995164388
 H          0.6420176301       -3.3363058551       -1.0484465662
 H          1.1694672887       -2.1098895229       -2.2708175024
 H         -1.7459422197       -2.5490221299       -1.2896074341
 H         -1.2170892428       -1.3305917820       -2.5217310240
 H         -0.2239897154       -1.4793937475        0.4136794868
