  62
        -98.93532258
 C         -1.5454279191       -0.7094244132        0.8898088099
 C         -2.7748156189       -1.1982130046        0.3903195897
 C         -3.8835720304       -0.2252748285        0.3163980372
 C         -3.6703108572        1.0481246303        0.6877567255
 C         -4.6398859718        2.1962130373        0.6310522045
 C         -4.4894400469        2.9713422121       -0.6890008721
 C         -5.3215213865        2.4318028593       -1.8517404112
 H         -6.3763192335        2.6479003610       -1.6690123980
 H         -5.0249332315        2.9829764926       -2.7471275783
 C         -5.1701754023        0.9330847275       -2.1247514524
 H         -5.4911576421        0.7456635648       -3.1513512711
 H         -4.1176903407        0.6508268962       -2.0594526656
 C         -6.0052978760        0.0600348969       -1.1765148564
 H         -6.7150203435        0.6918695570       -0.6426615241
 H         -6.5993396207       -0.6441432934       -1.7629076334
 C         -5.1972402197       -0.7737971385       -0.1712660243
 H         -5.8267277066       -0.9923692936        0.6979307801
 H         -4.9432059210       -1.7381395878       -0.6222686421
 H         -3.4307842178        2.9670772132       -0.9607856030
 H         -4.7795807790        4.0103500815       -0.5201854199
 H         -5.6590727955        1.8477546045        0.7688667055
 H         -4.3810147215        2.8623270134        1.4566655774
 O         -2.4613895563        1.4852742381        1.1364095780
 C         -1.3817229227        0.6321838007        1.2490955751
 O         -0.3441704083        1.1725949363        1.6803227588
 H          1.9386728746       -0.3296037357        0.2742853077
 C          1.5636980335       -0.9748728162       -0.5052601445
 C          0.4011766562       -1.7006447944       -0.2878534729
 C         -0.0896975590       -2.5054634943       -1.3104116157
 C          0.5827327065       -2.5851484478       -2.5161194143
 C          1.7565702617       -1.8810452793       -2.7202890548
 C          2.2492984940       -1.0654012035       -1.7080543771
 N          3.4185835979       -0.3174827504       -1.8950925805
 S          4.4616744923       -0.0111542563       -0.6256924076
 O          5.7142635354        0.3231901883       -1.2699938083
 O          4.5057241212       -1.1135753210        0.3066471118
 C          3.8056384630        1.4463833973        0.1551019297
 C          3.5457304016        2.5492955973       -0.6334235571
 C          3.0500853663        3.6959893619       -0.0351904727
 C          2.8257572591        3.7208183037        1.3329162955
 C          3.0957441153        2.6066609580        2.1110929327
 C          3.5920713717        1.4570668271        1.5185040503
 H          3.8078190706        0.5656407104        2.0869434485
 H          2.9137012392        2.6254296362        3.1735326212
 H          2.4340072894        4.6123340840        1.7967296076
 H          2.8363076439        4.5655356310       -0.6359541249
 H          3.7333813608        2.4924106569       -1.6928618497
 H          3.9071636054       -0.4878430723       -2.7615129016
 H          2.2858210258       -1.9554519595       -3.6582520574
 H          0.1935597854       -3.2110018741       -3.3051480715
 H         -1.0102407886       -3.0469158407       -1.1588457303
 C         -0.3045526712       -1.5757924867        1.0411503896
 H          0.3624534861       -1.0185583255        1.7132245221
 C         -0.5782280114       -2.9305199322        1.6626260703
 C          0.5771659028       -3.7121592988        2.2092022172
 C         -0.4234541431       -3.1004347174        3.1424248289
 H         -1.1110579450       -3.7519114793        3.6606628764
 H         -0.1227719109       -2.2367303281        3.7178757289
 H          0.5778660170       -4.7844841884        2.0870791874
 H          1.5581584726       -3.2636906138        2.1462865335
 H         -1.3766230733       -3.4788215720        1.1816290340
 O         -2.9661127350       -2.3855571441        0.0155701429
