  62
        -98.93522132
 C         -2.3636617586       -1.4008496021        0.0213609110
 C         -3.0037593405       -0.6272809340        1.0211430422
 C         -3.7927420519        0.5392664727        0.5828704051
 C         -3.8661120990        0.8077464100       -0.7335546975
 C         -4.5661804156        1.9511674990       -1.4186176291
 C         -3.7984620777        3.2762220774       -1.2887505911
 C         -3.2572305214        3.5707123796        0.1078636563
 H         -2.5851419372        2.7645273613        0.4099427249
 H         -2.6538296359        4.4803742724        0.0438756602
 C         -4.3176036789        3.7864041907        1.1854872549
 H         -4.9632995057        4.6162098507        0.8897318009
 H         -3.7933772839        4.0819482177        2.0978117511
 C         -5.1970492096        2.5778481343        1.5146779421
 H         -5.9693604075        2.4368459483        0.7633612520
 H         -5.7134714114        2.7988263403        2.4532236609
 C         -4.4328531557        1.2762444572        1.7342983147
 H         -3.6330355917        1.4477157194        2.4637866176
 H         -5.1049571934        0.5516627775        2.2095496475
 H         -4.4552156378        4.0880033334       -1.6062763342
 H         -2.9465215893        3.2431678714       -1.9729847246
 H         -5.5785498950        2.0519655531       -1.0390331705
 H         -4.6311027340        1.6898081464       -2.4772432642
 O         -3.2338582963        0.0376446028       -1.6632113837
 C         -2.4617385682       -1.0619478611       -1.3272357598
 O         -1.9417488270       -1.6246097166       -2.3108159166
 O         -2.9226752245       -0.9023156737        2.2487921486
 C         -1.5403755811       -2.5852513751        0.4996109065
 C         -0.1071857523       -2.1627324724        0.6976671726
 C          0.5356227028       -2.3292901049        1.9178881966
 C          1.8364334228       -1.8888879798        2.0943995177
 C          2.5190599666       -1.2719501032        1.0612463400
 C          1.8834540551       -1.0988572544       -0.1613892082
 C          0.5845739183       -1.5474463818       -0.3376463368
 H          0.0942885627       -1.4058845936       -1.2903703359
 N          2.5663119487       -0.4486908794       -1.2148111433
 S          2.8688477267        1.1870469877       -0.9399746821
 O          1.8665887124        1.7676599591       -0.0739124263
 O          3.0099312491        1.7825344200       -2.2508835127
 C          4.4524824422        1.1819748167       -0.1271755028
 C          5.5367374799        0.6805839856       -0.8209082840
 C          6.7763032581        0.6629597706       -0.2018411163
 C          6.9098485374        1.1459198173        1.0916755070
 C          5.8120013200        1.6488983737        1.7730711000
 C          4.5686140142        1.6683071328        1.1600738782
 H          3.6849998329        2.0435318565        1.6511923093
 H          5.9176115843        2.0240704381        2.7783045870
 H          7.8755691255        1.1306611818        1.5716961714
 H          7.6324109687        0.2730911904       -0.7283848891
 H          5.3882204189        0.3207806147       -1.8253080229
 H          2.0838769292       -0.5443369534       -2.0987938028
 H          3.5301393761       -0.9225395837        1.1930437495
 H          2.3222476264       -2.0229331424        3.0486594958
 H          0.0010254776       -2.7882761883        2.7365228600
 H         -1.9533947623       -2.8281840428        1.4912367148
 C         -1.6948639617       -3.8211182325       -0.3756420490
 C         -0.5844252223       -4.4088169947       -1.1894646066
 C         -1.0583424896       -5.1135123674        0.0436960150
 H         -1.6219767786       -6.0277323956       -0.0626199701
 H         -0.4136462539       -5.0873604902        0.9093120222
 H         -0.8385486727       -4.8172851184       -2.1557398110
 H          0.3815859568       -3.9298218473       -1.1627604766
 H         -2.6877553815       -3.8863326029       -0.8089248457
