  62
        -98.93513600
 C         -2.2782197673       -1.3820605105        0.0826267325
 C         -2.8373479702       -0.5400447530        1.0753781038
 C         -3.5741075730        0.6550093057        0.6238897818
 C         -3.6727693162        0.8878850447       -0.6976746724
 C         -4.3303102076        2.0463314302       -1.4000524475
 C         -3.4928598682        3.3323771863       -1.3304091042
 C         -2.9224867907        3.6513896705        0.0488051715
 H         -2.2785856848        2.8292481314        0.3681993769
 H         -2.2843377889        4.5333290334       -0.0538330352
 C         -3.9593596482        3.9450476158        1.1309934233
 H         -4.5862798410        4.7789800097        0.8078867265
 H         -3.4123446826        4.2658988756        2.0210455065
 C         -4.8656086458        2.7770702683        1.5287356506
 H         -5.6644567397        2.6326927422        0.8062676789
 H         -5.3464098131        3.0466915239        2.4734239624
 C         -4.1344772683        1.4607659874        1.7709428835
 H         -3.2973067836        1.6344258420        2.4566332094
 H         -4.8069928289        0.7793252807        2.3055719490
 H         -4.1102008944        4.1643506217       -1.6741224658
 H         -2.6509607618        3.2276604831       -2.0200479405
 H         -5.3258172042        2.2124726262       -0.9993017614
 H         -4.4360761178        1.7572898578       -2.4482030471
 O         -3.1154132123        0.0537959380       -1.6203513368
 C         -2.3983394822       -1.0782933487       -1.2724605587
 O         -1.9448932620       -1.7019254705       -2.2526950641
 O         -2.7297360758       -0.7797680340        2.3084747577
 C         -1.5082073101       -2.5962288208        0.5751669785
 C         -0.0498879746       -2.2439774749        0.7171834376
 C          0.6217129534       -2.3989683329        1.9234715429
 C          1.9467209733       -2.0162617967        2.0472146387
 C          2.6246800466       -1.4645184281        0.9744030660
 C          1.9601948825       -1.3052613803       -0.2342991622
 C          0.6390874493       -1.7003253143       -0.3592290142
 H          0.1287894971       -1.5668905477       -1.3025418402
 N          2.6357122247       -0.6976832024       -1.3242237483
 S          2.7110179401        0.9823386827       -1.1706861417
 O          1.5341586263        1.5022696875       -0.5083305276
 O          2.9748435984        1.4870512402       -2.5005483614
 C          4.1459374222        1.2250759076       -0.1471875910
 C          5.3859817214        0.9371105154       -0.6836479373
 C          6.5110332953        1.0998436919        0.1087329136
 C          6.3771194794        1.5449905031        1.4157277938
 C          5.1250908323        1.8319204338        1.9381257864
 C          3.9952780845        1.6706533534        1.1510729326
 H          3.0008119902        1.8756891054        1.5142217113
 H          5.0226098295        2.1778741358        2.9540852786
 H          7.2539091416        1.6697820211        2.0313370566
 H          7.4863390534        0.8787159368       -0.2937624921
 H          5.4417535903        0.5997305037       -1.7051527452
 H          2.1885781475       -0.9066447660       -2.2078787802
 H          3.6545116491       -1.1591488654        1.0633976269
 H          2.4545128391       -2.1419288197        2.9910178780
 H          0.0908072549       -2.8031540881        2.7728802694
 H         -1.9034248631       -2.7851351204        1.5856434298
 C         -1.7553177278       -3.8476815685       -0.2552456419
 C         -0.7002337614       -4.5244538731       -1.0736626807
 C         -1.1841388226       -5.1610061833        0.1922550273
 H         -1.8015419692       -6.0438798393        0.1283835367
 H         -0.5183741873       -5.1449228047        1.0420072568
 H         -1.0005289740       -4.9478520116       -2.0200759901
 H          0.2921612334       -4.1018443304       -1.0843866489
 H         -2.7602391325       -3.8682675980       -0.6643745982
