  62
        -98.94491278
 C         -1.9522832607       -0.8540416371        0.0746771222
 C         -2.2637403422        0.1064405647        1.0641971586
 C         -2.3871568273        1.4929848187        0.5984424624
 C         -2.1654954006        1.7716375062       -0.6993319532
 C         -2.2936624501        3.1341938678       -1.3161410807
 C         -3.7127473191        3.3738483877       -1.8508826468
 C         -4.8153532507        3.0325744208       -0.8485297300
 H         -5.7703822291        3.2668209214       -1.3234690362
 H         -4.8036395160        1.9566063267       -0.6605807673
 C         -4.7113285558        3.7805978466        0.4878231794
 H         -4.0611939249        4.6489805103        0.3765501987
 H         -5.7022019076        4.1487715300        0.7614503484
 C         -4.2165380121        2.9256096306        1.6559193433
 H         -4.8061616541        2.0073165529        1.7137229574
 H         -4.3852033279        3.4825090751        2.5813694297
 C         -2.7318501927        2.5405714176        1.6196755317
 H         -2.1199729188        3.4337594125        1.4750133256
 H         -2.4746651306        2.1057749767        2.5903141335
 H         -3.7973541520        4.4211914077       -2.1461421095
 H         -3.8547445936        2.7560773513       -2.7404828728
 H         -2.0403622153        3.8870826620       -0.5719974523
 H         -1.5828128082        3.2014847580       -2.1416609568
 O         -1.8472820937        0.8251835912       -1.6187630378
 C         -1.7227989401       -0.5063263856       -1.2566923285
 O         -1.4251963454       -1.2701902912       -2.1955559169
 H          0.4705505304       -0.9163099839        0.8749202119
 C          0.6795118978       -1.8739427094        0.4188729147
 C         -0.3652654294       -2.7479394174        0.1452139151
 C         -0.0677334186       -3.9789490938       -0.4246760339
 C          1.2397576442       -4.3040531791       -0.7431757037
 C          2.2695962755       -3.4113537670       -0.5130222994
 C          1.9842374143       -2.1847230210        0.0773902123
 N          3.0077081866       -1.2593569903        0.3523051357
 S          2.6461344898        0.3861010210        0.2246533770
 O          2.0240424883        0.8204072983        1.4515227022
 O          1.9208471469        0.6553708224       -0.9967362706
 C          4.2964837856        1.0566108450        0.1281842711
 C          4.8209967474        1.4019843159       -1.1027633203
 C          6.1178159245        1.8878886790       -1.1665940702
 C          6.8649652524        2.0154454196       -0.0053451207
 C          6.3245883710        1.6652646403        1.2233109659
 C          5.0283079343        1.1805359069        1.2943388295
 H          4.5614877406        0.9040816410        2.2252481428
 H          6.9073473411        1.7682445490        2.1243266430
 H          7.8738594398        2.3929199524       -0.0580627269
 H          6.5386873553        2.1639174496       -2.1199537224
 H          4.1990754647        1.2911444397       -1.9767926166
 H          3.8702111220       -1.4822034308       -0.1266669966
 H          3.2846387491       -3.6571030425       -0.7856895649
 H          1.4566776721       -5.2604616833       -1.1942757478
 H         -0.8609154573       -4.6781101418       -0.6331693021
 C         -1.7672943442       -2.3035674259        0.4841795912
 H         -1.8787772803       -2.3160919955        1.5793690298
 C         -2.8440973562       -3.1752489844       -0.1276799046
 C         -3.3186981764       -4.4064499278        0.5832743104
 C         -4.2014528462       -3.1983452455        0.5068201612
 H         -5.0696870002       -3.2298998533       -0.1340904426
 H         -4.3386630314       -2.6051521175        1.3993106973
 H         -3.5852851165       -5.2709732209       -0.0057202889
 H         -2.8641201108       -4.6406260089        1.5339489376
 H         -2.7966247406       -3.1907045237       -1.2109137795
 O         -2.4296511789       -0.1838188833        2.2815412626
