  62
        -98.94614018
 C         -1.7769461251       -1.1450138460       -0.2757813516
 C         -3.1250109984       -1.3028893357        0.1270297636
 C         -4.0588934301       -0.2675228797       -0.3348844750
 C         -3.6003168701        0.7349249769       -1.1067433757
 C         -4.4296372154        1.8831611205       -1.6027238220
 C         -4.3806035661        3.0660178390       -0.6253873865
 C         -4.6501405319        2.6770815609        0.8282071495
 H         -3.8374543954        2.0392404264        1.1831851080
 H         -4.6213957983        3.5938674157        1.4209983451
 C         -5.9899897530        1.9634263119        1.0561236675
 H         -6.6526368279        2.1390394519        0.2079270330
 H         -6.4706722983        2.3941021072        1.9370811749
 C         -5.8739855658        0.4582264634        1.3044262161
 H         -5.1406246420        0.2725117216        2.0932519359
 H         -6.8406991423        0.0979610809        1.6662055110
 C         -5.4963195497       -0.3932440704        0.0854475275
 H         -5.6386144069       -1.4434312925        0.3568042809
 H         -6.1636815093       -0.1610523945       -0.7469384036
 H         -5.1120667448        3.8096155373       -0.9468641818
 H         -3.3882484517        3.5192119396       -0.6801092371
 H         -4.0319740394        2.2030131671       -2.5673566891
 H         -5.4572271820        1.5512251294       -1.7371105492
 O         -2.3018340655        0.8441419217       -1.4863205824
 C         -1.3556997681       -0.0822951591       -1.0734994823
 O         -0.2017323275        0.1508093414       -1.4787755912
 H          2.0031370583       -2.0504177425       -0.1955501865
 C          1.6586826494       -1.5305286604        0.6820957206
 C          0.3119493754       -1.4914340122        1.0055067779
 C         -0.0794437315       -0.7979220308        2.1494319308
 C          0.8503198471       -0.1556138194        2.9425357558
 C          2.1932547082       -0.1828165627        2.6062597365
 C          2.5951253836       -0.8729989406        1.4704476687
 N          3.9563393021       -0.9377613542        1.1122793992
 S          4.4293308493       -0.3488158143       -0.3840592647
 O          3.7916554053       -1.1002286500       -1.4321149832
 O          5.8756355060       -0.3953840039       -0.3534268875
 C          3.8919978485        1.3521727092       -0.3752747764
 C          4.8023721413        2.3232180804       -0.0026450015
 C          4.3839302409        3.6406268874        0.0827372685
 C          3.0633624791        3.9624477629       -0.1936779406
 C          2.1631586841        2.9750858577       -0.5617204206
 C          2.5744466396        1.6536750513       -0.6547216327
 H          1.8840197803        0.8770426271       -0.9448611031
 H          1.1341255061        3.2143602203       -0.7796801270
 H          2.7333902682        4.9871098251       -0.1238159527
 H          5.0841633719        4.4099195506        0.3660461748
 H          5.8191714565        2.0266925245        0.1989215892
 H          4.5760109219       -0.5658659463        1.8193201865
 H          2.9236488573        0.3216894543        3.2206591894
 H          0.5296551278        0.3750695447        3.8261736235
 H         -1.1296836542       -0.7737330774        2.4070197635
 C         -0.7510824113       -2.1689498430        0.1770975462
 H         -1.3016803654       -2.8628007123        0.8296399632
 C         -0.2066629985       -2.9446523563       -1.0028394128
 C          0.3423108408       -4.3242208053       -0.8008192485
 C         -0.9669779105       -4.1339220839       -1.5045437725
 H         -1.0118476507       -4.3054025660       -2.5696394670
 H         -1.8733276921       -4.4007383266       -0.9805956424
 H          0.3258525491       -4.7263834594        0.2009454615
 H          1.2011751239       -4.6250779754       -1.3818735032
 H          0.2714844332       -2.3115081440       -1.7424507056
 O         -3.5254331532       -2.2600361172        0.8425376865
