  62
        -98.92586615
 C         -2.2592795101       -0.8027642995       -0.1841104187
 C         -3.5706717302       -1.1809011090        0.1928050113
 C         -4.6785630300       -0.3004498292       -0.2220061195
 C         -4.3889186197        0.8030695102       -0.9358315203
 C         -5.3329481195        1.8625134600       -1.4393880713
 C         -5.7978814295        2.8188675709       -0.3291928921
 C         -6.1850307198        2.1413633619        0.9827324483
 H         -6.3862758698        2.9275935125        1.7151897877
 H         -5.3348759600        1.5650193721        1.3521996889
 C         -7.4171926399        1.2424613721        0.9124392488
 H         -8.2728535598        1.8331908619        0.5778537882
 H         -7.6271220102        0.9003030029        1.9290676491
 C         -7.2964957100        0.0103953214        0.0131579298
 H         -7.4005390498        0.2775237606       -1.0349604204
 H         -8.1368145901       -0.6486824983        0.2502189302
 C         -6.0280853501       -0.8106001387        0.2235926606
 H         -6.1539031002       -1.7805782090       -0.2724631986
 H         -5.9247953603       -1.0453602079        1.2891046808
 H         -6.6420135894        3.3992300507       -0.7053678927
 H         -4.9793912795        3.5109430109       -0.1168113625
 H         -6.1819730094        1.4002267897       -1.9341422711
 H         -4.7848249293        2.4389629193       -2.1878105216
 O         -3.1106072296        1.1310733598       -1.2753373604
 C         -2.0173425098        0.3563184099       -0.9212190196
 O         -0.9307147596        0.8133282694       -1.3181654697
 O         -3.8155971804       -2.2214324885        0.8631087221
 C         -1.1212341703       -1.7190917793        0.2484133022
 C         -0.0858526303       -0.9388798489        1.0156021818
 C         -0.3310763805       -0.7376455478        2.3752981516
 C          0.5369966195       -0.0081891273        3.1630085111
 C          1.6946580597        0.5211573221        2.6204617709
 C          1.9462882299        0.3378081210        1.2678088411
 C          1.0561596499       -0.3730175595        0.4724581115
 H          1.2796610001       -0.4448279903       -0.5763746884
 N          3.1020356100        0.8655071304        0.6705432409
 S          3.8958920901       -0.1034245006       -0.4624879482
 O          3.4263196104        0.2218435185       -1.7850306685
 O          3.7958095798       -1.4904020203       -0.0677217572
 C          5.5727091201        0.4720764393       -0.2602674384
 C          6.0024876804        1.5619536887       -0.9931662191
 C          7.2906896005        2.0345718687       -0.7974893793
 C          8.1217392102        1.4151104293        0.1240728813
 C          7.6772379399        0.3206428899        0.8507987321
 C          6.3902851899       -0.1569578801        0.6600358123
 H          6.0045694597       -1.0097806896        1.1952564128
 H          8.3267214997       -0.1609278096        1.5639165526
 H          9.1231886802        1.7860032392        0.2749027512
 H          7.6406967507        2.8828195082       -1.3633172599
 H          5.3221991306        2.0056404283       -1.7016606196
 H          3.7436929100        1.2725699908        1.3367797707
 H          2.3871217196        1.0788973425        3.2327405106
 H          0.3200479293        0.1364405835        4.2106282210
 H         -1.2277950606       -1.1598509973        2.8082938217
 H         -1.5973923005       -2.3949152587        0.9775366926
 C         -0.6958598902       -2.6260628903       -0.8996309571
 C          0.0325656801       -2.2028352213       -2.1386895873
 C          0.6992595198       -3.1130922707       -1.1502082064
 H          0.8294933397       -4.1496694209       -1.4258439756
 H          1.5094032997       -2.7179989303       -0.5563350066
 H         -0.2974240398       -2.6221502920       -3.0794352370
 H          0.3628918902       -1.1800909715       -2.2272367080
 H         -1.4796417103       -3.3606561303       -1.0748760966
