  62
        -98.94070319
 C          1.1696591909        1.3156594670        0.0336065709
 C          1.7974943705        0.6132125735        1.0871479126
 C          2.6321711368       -0.5409473066        0.7111115697
 C          2.7329411662       -0.8851008612       -0.5864480431
 C          3.5025741514       -1.9998259040       -1.2652268108
 C          4.5722783732       -2.7856956971       -0.5109643677
 C          5.8216608700       -1.9826683716       -0.1504108667
 H          6.4660567260       -2.6118613387        0.4675445168
 H          6.3652442082       -1.7539459828       -1.0705842431
 C          5.5716574902       -0.6633142861        0.5758198163
 H          6.5422010145       -0.1960262751        0.7636078547
 H          5.0103111222        0.0126899023       -0.0722794517
 C          4.8472088151       -0.7817507707        1.9152362076
 H          5.3792679729       -1.4830726319        2.5611033423
 H          4.8772407249        0.2009834159        2.3937396270
 C          3.3719919886       -1.2110792057        1.8329976077
 H          2.8785469659       -0.8972519810        2.7576316362
 H          3.2788637346       -2.2924051545        1.7658923389
 H          4.1484703246       -3.2482924405        0.3755309783
 H          4.8846991395       -3.5987920238       -1.1719605145
 H          2.7516661613       -2.7084889042       -1.6299427657
 H          3.9546527975       -1.5480031189       -2.1538916544
 O          2.0455504017       -0.2214097842       -1.5598427630
 C          1.2478956659        0.8775480397       -1.2876506369
 O          0.6845372654        1.3582548905       -2.2863818720
 O          1.6658524375        0.9340155795        2.3004516937
 C          0.3375073074        2.5429066247        0.3677270009
 C         -1.1177099530        2.2086300187        0.1577441018
 C         -1.9175624049        2.7901624471       -0.8157292937
 C         -3.2314831692        2.3823533876       -0.9772888609
 C         -3.7743367289        1.3964443031       -0.1738199544
 C         -2.9821159813        0.8141977236        0.8075331391
 C         -1.6680416637        1.2202072709        0.9662079022
 H         -1.0482043952        0.7599221808        1.7254753725
 N         -3.5207422831       -0.2128732432        1.6173404952
 S         -3.9237785410       -1.6079970388        0.7789916106
 O         -5.1308430945       -1.3715797291        0.0298169578
 O         -3.9834021922       -2.6577161473        1.7705775385
 C         -2.5527746572       -1.8692969618       -0.3310862631
 C         -2.6305353368       -1.4086334033       -1.6296290297
 C         -1.5297491574       -1.5538209031       -2.4577306816
 C         -0.3767453036       -2.1523693093       -1.9756112284
 C         -0.3119273465       -2.6040731029       -0.6664806586
 C         -1.4075176549       -2.4564077577        0.1677491481
 H         -1.3949978378       -2.8003382075        1.1900026555
 H          0.5891266065       -3.0611811172       -0.2886824116
 H          0.4783548576       -2.2537368091       -2.6253356111
 H         -1.5667608028       -1.1905942218       -3.4718968368
 H         -3.5462167812       -0.9529461548       -1.9688192530
 H         -2.9150014732       -0.4554906891        2.3895391572
 H         -4.7901424538        1.0571463504       -0.2969967110
 H         -3.8406189975        2.8385206009       -1.7427076906
 H         -1.5095687070        3.5527019576       -1.4578726502
 H          0.4910286357        2.7132741585        1.4430363917
 C          0.8100559569        3.7629426344       -0.3914368084
 C          0.4530662350        5.1294793710        0.1095688014
 C          1.8640462329        4.6366837331        0.2172028572
 H          2.6131006587        5.0676316868       -0.4300466624
 H          2.2376811976        4.3634465600        1.1933978951
 H          0.2332731287        5.9028363033       -0.6104615188
 H         -0.1329354375        5.1914145533        1.0141269365
 H          0.8529920543        3.6063149673       -1.4624530052
