  62
        -98.94454719
 C         -2.6213065407       -1.2183874283        0.1428704577
 C         -2.6352251716       -0.2763588000       -0.9141314888
 C         -3.4214246134        0.9442970625       -0.6784732067
 C         -4.0766402080        1.1012850891        0.4852273098
 C         -4.8579571204        2.3209283307        0.8767456012
 C         -3.9758454504        3.3277170740        1.6283504362
 C         -2.6471687375        3.6289757918        0.9340178133
 H         -2.0238899669        2.7309135656        0.9392090884
 H         -2.1272571486        4.3772307493        1.5364668288
 C         -2.7838422631        4.1408454915       -0.5067236402
 H         -2.1061047068        4.9863897915       -0.6421507196
 H         -3.7976674521        4.5056662617       -0.6764079795
 C         -2.4286078740        3.1123757157       -1.5822380125
 H         -1.4496116413        2.6768186380       -1.3607359167
 H         -2.3417967753        3.6367125075       -2.5380025254
 C         -3.4384110672        1.9732430229       -1.7737507165
 H         -3.1691587498        1.4417198793       -2.6911481794
 H         -4.4404446290        2.3882330787       -1.8986529908
 H         -3.7577575456        2.9250855456        2.6200959843
 H         -4.5393332786        4.2541047705        1.7532784435
 H         -5.6750892623        2.0101111357        1.5297939330
 H         -5.2740976038        2.7824326682       -0.0164995618
 O         -4.0598204798        0.1676089463        1.4691339385
 C         -3.3238706418       -0.9952391667        1.3323322327
 O         -3.3801397652       -1.7522307006        2.3215858250
 O         -2.0325150974       -0.4217409980       -2.0124496756
 C         -1.8176541395       -2.5114512620        0.0966248900
 C         -0.3670006584       -2.1963009959        0.3737619893
 C          0.2062791757       -2.5108390397        1.6006874747
 C          1.5155523573       -2.1586919454        1.8779946732
 C          2.2757220317       -1.4783211971        0.9432349769
 C          1.7079950636       -1.1511875774       -0.2807865317
 C          0.4033819589       -1.5242882520       -0.5647281599
 H         -0.0370497781       -1.2452951265       -1.5102692417
 N          2.4642510236       -0.4272332409       -1.2263923457
 S          3.0019866133        1.0836509143       -0.7146131989
 O          2.1315438109        1.6407403820        0.2963302954
 O          3.1716206949        1.8644199960       -1.9208314295
 C          4.6051433229        0.7393736527       -0.0200085637
 C          4.8837448544        1.0968694018        1.2844361372
 C          6.1407088779        0.8213911135        1.8005620010
 C          7.0909154113        0.1969996744        1.0071607651
 C          6.7957205486       -0.1537490214       -0.3020426589
 C          5.5419650811        0.1203095981       -0.8245176474
 H          5.2720356073       -0.1314977405       -1.8364419497
 H          7.5373861294       -0.6391750168       -0.9156581732
 H          8.0673721302       -0.0175394571        1.4118440988
 H          6.3717721628        1.0935188137        2.8179692215
 H          4.1103074618        1.5738336046        1.8652033586
 H          1.9841686752       -0.3299993583       -2.1111219182
 H          3.2920992063       -1.1898849561        1.1572831416
 H          1.9466908966       -2.4103483574        2.8349991406
 H         -0.3923833082       -3.0144981371        2.3460929348
 H         -2.1931154428       -3.1224446405        0.9279213746
 C         -2.0038412973       -3.2887015005       -1.1908273454
 C         -1.6458599292       -4.7432494475       -1.2152228159
 C         -3.0835629326       -4.3238998627       -1.2689128188
 H         -3.6218671929       -4.4363176561       -2.1980391612
 H         -3.6937571668       -4.4769616229       -0.3905278133
 H         -1.1944335699       -5.1472466980       -2.1082406167
 H         -1.2808013821       -5.1826728922       -0.2992686191
 H         -1.8136631392       -2.7066767044       -2.0824600571
