  62
        -98.94095072
 C         -2.0252242504       -1.3464944689        0.3621614992
 C         -2.4946267402       -0.6347470483       -0.7700879705
 C         -3.6876393699        0.1959294620       -0.5496391501
 C         -4.2615030798        0.2457878617        0.6652274899
 C         -5.4931167095        1.0271429020        1.0343402103
 C         -5.2174607990        2.4963535018        1.3825310508
 C         -4.8611447888        3.3909862821        0.1944163911
 H         -5.6173234289        3.2790959027       -0.5831780689
 H         -4.9060942784        4.4236573420        0.5461375815
 C         -3.4686959189        3.1327438119       -0.3988522691
 H         -2.8661235990        2.5679704614        0.3167130607
 H         -2.9585525886        4.0850513118       -0.5613948987
 C         -3.4756285092        2.3895231024       -1.7349522593
 H         -3.9575123891        3.0085717228       -2.4949773991
 H         -2.4388395593        2.2260133621       -2.0412959395
 C         -4.1791979297        1.0264995426       -1.6962083098
 H         -5.2589481796        1.1613024829       -1.6359953897
 H         -3.9420661199        0.4938316328       -2.6203542900
 H         -4.4138213090        2.5357273413        2.1217448808
 H         -6.1196986689        2.8950167819        1.8520479810
 H         -6.2182611196        0.9743786326        0.2219248803
 H         -5.9192797997        0.5396051519        1.9139046401
 O         -3.7728627500       -0.4432927788        1.7309209196
 C         -2.6306335903       -1.2202711992        1.6146973393
 O         -2.2547914704       -1.7370727697        2.6864275391
 H          0.2046519002        0.1532642901        0.9506463596
 C          0.7005802300       -0.2325155197        0.0674891395
 C          0.3142379195       -1.4696621594       -0.4358268010
 C          0.9596277493       -1.9550023392       -1.5644665112
 C          1.9444597395       -1.2050758193       -2.1848465709
 C          2.3112640000        0.0336119904       -1.6937050205
 C          1.6801804502        0.5231062002       -0.5564992503
 N          2.0533431207        1.7760196699       -0.0410586999
 S          3.6856009908        2.1272540893        0.0617745102
 O          3.8013073912        3.0698599588        1.1527751905
 O          4.1667759809        2.5859383696       -1.2174507097
 C          4.4725159103        0.5819867788        0.4826987696
 C          5.4079034701        0.0299957788       -0.3683449207
 C          5.9821395697       -1.1864075815       -0.0351713612
 C          5.6094009095       -1.8281865518        1.1353725486
 C          4.6707000997       -1.2588301418        1.9824576489
 C          4.0953596201       -0.0419334815        1.6555073594
 H          3.3663731003        0.4285435786        2.2960933996
 H          4.3817011296       -1.7588902320        2.8930094887
 H          6.0524776892       -2.7775271620        1.3915375583
 H          6.7139627395       -1.6303035915       -0.6905055614
 H          5.6655569802        0.5614901291       -1.2698760605
 H          1.5654551008        2.0383011297        0.8021736503
 H          3.0604121302        0.6375962803       -2.1794922403
 H          2.4278196794       -1.5879793692       -3.0705718511
 H          0.6721105390       -2.9071939890       -1.9780327015
 C         -0.7773078307       -2.2110616093        0.2973950588
 H         -0.4575737907       -2.3226418898        1.3469098988
 C         -1.0156521512       -3.6178582890       -0.2301742517
 C         -2.3516361514       -4.2811705686       -0.0815292618
 C         -1.8557908413       -3.8909419283       -1.4399128417
 H         -1.5431711516       -4.6754697782       -2.1136133320
 H         -2.3098204211       -3.0468296880       -1.9336279414
 H         -3.1521269812       -3.7036877985        0.3583031784
 H         -2.3775191817       -5.3288606687        0.1783071878
 H         -0.1484391814       -4.2546721494       -0.0856623719
 O         -1.9602165603       -0.6799125781       -1.9066894305
