  62
        -98.94106759
 C          2.6013099877        1.3208318204        0.2397505871
 C          2.3977824093        0.2413272919       -0.6573477229
 C          3.4983448193       -0.7309681831       -0.7446575617
 C          4.6214017022       -0.5494055973       -0.0286600255
 C          5.8361352586       -1.4368871317       -0.0381267912
 C          5.7313908375       -2.6453534546        0.9021664117
 C          4.7767238907       -3.7475072039        0.4411909108
 H          5.0183796155       -4.0317683379       -0.5834277620
 H          4.9631129728       -4.6179692143        1.0732450800
 C          3.2892810533       -3.3789615617        0.5370731860
 H          3.1678680631       -2.5147769029        1.1944721850
 H          2.7366283304       -4.2043446407        0.9914845375
 C          2.6227712324       -3.0754474180       -0.8051054130
 H          1.5834149988       -2.7907069933       -0.6170715775
 H          2.6158360230       -3.9764332245       -1.4229816908
 C          3.2892034157       -1.9443334625       -1.5993471751
 H          4.2362082693       -2.2853269318       -2.0175610979
 H          2.6230746070       -1.6652774106       -2.4197181500
 H          6.7315050875       -3.0752798650        0.9926434573
 H          5.4298882464       -2.2931562282        1.8912887251
 H          6.0316051413       -1.7804234732       -1.0542750348
 H          6.6751157326       -0.8185946418        0.2883656971
 O          4.7884835686        0.5122060513        0.8034963060
 C          3.7776891562        1.4406654880        0.9873151330
 O          4.0455812307        2.3206114785        1.8294507407
 O          1.3700673886        0.0819835730       -1.3657398147
 C          1.5369681574        2.3734469003        0.5093351345
 C          0.2203304869        1.6911753544        0.7819887465
 C         -0.0023215886        1.1135046077        2.0281338123
 C         -1.1774841786        0.4346579361        2.2902843700
 C         -2.1479843871        0.3065966809        1.3117895550
 C         -1.9245573965        0.8602916682        0.0587178555
 C         -0.7551726066        1.5663534097       -0.1931724434
 H         -0.5848714006        1.9821238759       -1.1739371122
 N         -2.8949234921        0.7263371694       -0.9472350933
 S         -3.6726768935       -0.7462583822       -1.1441808848
 O         -2.8525392120       -1.8624308252       -0.7353211408
 O         -4.1260109886       -0.7492630371       -2.5184866973
 C         -5.0922742759       -0.6078516693       -0.0751849595
 C         -5.3805031176       -1.6172817340        0.8221606097
 C         -6.4982226209       -1.4956091926        1.6332804840
 C         -7.3048670807       -0.3726940226        1.5325024073
 C         -7.0035499359        0.6313412839        0.6243175372
 C         -5.8884695300        0.5149723752       -0.1899079518
 H         -5.6217621969        1.2710206445       -0.9092096222
 H         -7.6331225644        1.5032765091        0.5488344195
 H         -8.1734973991       -0.2797689649        2.1651009792
 H         -6.7338724406       -2.2758058443        2.3392150367
 H         -4.7216240147       -2.4699461735        0.8699802413
 H         -2.6012019039        1.0972592687       -1.8394603026
 H         -3.0586973980       -0.2368126500        1.5037086426
 H         -1.3388939520       -0.0050176099        3.2629263930
 H          0.7647851717        1.1949153616        2.7864111320
 H          1.8608861816        2.8694973400        1.4380176989
 C          1.4347798752        3.4629624489       -0.5477641394
 C          2.6750502298        4.0370271767       -1.1634417741
 C          1.7264577071        3.2334186811       -1.9988320727
 H          1.1214472072        3.7540330517       -2.7273901549
 H          2.0210498844        2.2430298075       -2.3074972048
 H          2.7275505993        5.1035573299       -1.3216775077
 H          3.6181501143        3.5883945098       -0.8863244729
 H          0.6396036274        4.1663938961       -0.3192084601
