  62
        -98.93958543
 C          0.9946767675        1.8829169011       -0.0017896843
 C          1.9520068106        1.4667484397        0.9520893235
 C          2.9365580358        0.4803538420        0.4889710044
 C          2.8761936186        0.0248090186       -0.7756427788
 C          3.8400908045       -0.9270458885       -1.4339023341
 C          3.8845727139       -2.3580869961       -0.8649237457
 C          4.9701743824       -2.5853516387        0.1942314979
 H          5.4223591761       -3.5656788173        0.0312785671
 H          5.7623885161       -1.8490327663        0.0533225279
 C          4.4919539223       -2.5500209013        1.6489741660
 H          4.0004473949       -3.4959875668        1.8872733651
 H          5.3721584048       -2.4674332786        2.2902778343
 C          3.5166974015       -1.4263458700        2.0004310231
 H          2.5275314439       -1.6585533077        1.5976313659
 H          3.4082246001       -1.3963081628        3.0866670149
 C          3.9321416202       -0.0333559918        1.4881367543
 H          4.9300762652       -0.0656124729        1.0532208097
 H          3.9415336685        0.6798054111        2.3150739711
 H          2.9057127007       -2.6170382489       -0.4644975704
 H          4.0839234782       -3.0268334121       -1.7034819142
 H          4.8408619084       -0.4906008032       -1.3944258328
 H          3.5379021131       -0.9667225376       -2.4820914383
 O          1.9201144808        0.4312574315       -1.6534480026
 C          0.9523455000        1.3557548319       -1.2927727044
 O          0.1354362882        1.6217291328       -2.1926822126
 O          1.9851368417        1.9029135621        2.1354106614
 C         -0.0538533901        2.9034995349        0.4037209196
 C         -1.4229464188        2.2779015805        0.3069571511
 C         -2.4742650870        2.8275386457       -0.4132760465
 C         -3.6937061586        2.1742035485       -0.4843898687
 C         -3.8949256009        0.9705670285        0.1652267060
 C         -2.8508899231        0.4160541694        0.8960390069
 C         -1.6310027299        1.0697978100        0.9635606381
 H         -0.8177997930        0.6342100073        1.5316442449
 N         -3.0464597712       -0.8121940614        1.5657296119
 S         -3.3193078377       -2.1681098482        0.6236550210
 O         -4.4948356524       -1.9472829974       -0.1781035333
 O         -3.3714499327       -3.2767227627        1.5490286594
 C         -1.8844472400       -2.3304857808       -0.4239195793
 C         -1.7256262641       -1.4632844656       -1.4867030541
 C         -0.5944850038       -1.5761242604       -2.2795025035
 C          0.3494896453       -2.5519560656       -2.0004753992
 C          0.1751016813       -3.4162151218       -0.9299920276
 C         -0.9481598028       -3.3012619327       -0.1274548420
 H         -1.1249797150       -3.9510121712        0.7147991265
 H          0.9080666079       -4.1793906022       -0.7202005111
 H          1.2267484545       -2.6350072555       -2.6223407912
 H         -0.4477619459       -0.8852706547       -3.0943831249
 H         -2.4765443124       -0.7156010583       -1.6847535900
 H         -2.3158605726       -1.0187776667        2.2328359949
 H         -4.8318348822        0.4417044851        0.1025004485
 H         -4.4997821145        2.6098944148       -1.0551241638
 H         -2.3385390508        3.7634730314       -0.9292387714
 H          0.1469407700        3.1246666904        1.4624581266
 C          0.0970164720        4.1787289513       -0.3971300535
 C         -0.3803075531        5.4817799777        0.1689147657
 C          1.0882886000        5.2063512869        0.0568640594
 H          1.6589364802        5.7375738717       -0.6900088189
 H          1.6417834835        4.9976660298        0.9608559917
 H         -0.8173604903        6.2068072655       -0.5008781203
 H         -0.8251813004        5.4662895222        1.1523930942
 H          0.0003546099        4.0163602408       -1.4645030072
