  62
        -98.94702753
 C          2.2908019284        0.4948555045       -0.4770720862
 C          1.4444257080       -0.4206453815       -1.1468309578
 C          1.7031849314       -1.8461515195       -0.8955165179
 C          2.6839199849       -2.2050275057       -0.0494838533
 C          3.0207135370       -3.6165387741        0.3330208935
 C          2.2547872752       -4.0574017041        1.5874832036
 C          0.7514112244       -3.7837921807        1.5288124985
 H          0.3126520252       -4.1854204577        2.4454911385
 H          0.5730687193       -2.7052866776        1.5418318877
 C          0.0394048249       -4.3928162436        0.3129507087
 H         -0.8908618089       -4.8545436556        0.6509016504
 H          0.6546564294       -5.1804903101       -0.1248553056
 C         -0.3357061453       -3.3725452306       -0.7633029951
 H         -0.8359591330       -2.5256721069       -0.2867715817
 H         -1.0506111053       -3.8404748341       -1.4458823293
 C          0.8297712163       -2.8407186888       -1.6079128098
 H          1.4250824158       -3.6764849392       -1.9821872021
 H          0.4061913668       -2.3100172424       -2.4654634338
 H          2.4245577992       -5.1258849847        1.7356846044
 H          2.6646078282       -3.5253141213        2.4493286283
 H          2.7858546357       -4.2779790417       -0.4987629162
 H          4.0918762182       -3.6694831333        0.5366481310
 O          3.4725708242       -1.3015456570        0.5869365795
 C          3.2872961041        0.0562328194        0.4002926876
 O          4.0753228610        0.7713478790        1.0536859344
 O          0.5142400151       -0.0922566981       -1.9313758250
 C          2.1591466715        2.0074735227       -0.5870619497
 C          1.1453820820        2.5055734788        0.4164287206
 C          1.4800226762        3.4783963719        1.3502260913
 C          0.5579771848        3.8883183634        2.2971122336
 C         -0.6971756975        3.3106542766        2.3507566834
 C         -1.0415701907        2.3347863234        1.4209249581
 C         -0.1340923395        1.9689413822        0.4394574932
 H         -0.4117851443        1.2239378946       -0.2855482235
 N         -2.2988115806        1.7133569667        1.4638265469
 S         -2.4473853454        0.0419052256        1.2997694498
 O         -3.3307049610       -0.3590646495        2.3784274519
 O         -1.1584187641       -0.6015953203        1.2645982411
 C         -3.3347180162       -0.1405688960       -0.2347007268
 C         -4.7147481895       -0.0758358179       -0.1758829395
 C         -5.4471570320       -0.1911084880       -1.3451544844
 C         -4.7905121486       -0.3685899578       -2.5538659632
 C         -3.4070208769       -0.4312151365       -2.5965087765
 C         -2.6664987419       -0.3151580972       -1.4290731103
 H         -1.5883383001       -0.3611009234       -1.4518476171
 H         -2.8897265881       -0.5680521464       -3.5327991777
 H         -5.3584644410       -0.4599636160       -3.4664019195
 H         -6.5237104485       -0.1437134533       -1.3111001813
 H         -5.1833552137        0.0478198261        0.7864477648
 H         -2.8862533179        2.0354966021        2.2197441328
 H         -1.4053596129        3.6046560622        3.1111667079
 H          0.8273436961        4.6470035982        3.0164815094
 H          2.4755484108        3.8975875582        1.3450341004
 H          3.1387934972        2.4130338388       -0.2979091387
 C          1.8314241852        2.5017850141       -1.9818548981
 C          2.2089698190        3.9005328287       -2.3627610174
 C          2.9442634085        2.7370992319       -2.9562245050
 H          2.7788990267        2.4925502641       -3.9945194745
 H          3.9525025731        2.5444314767       -2.6184550323
 H          1.5364490474        4.4599719162       -2.9944981435
 H          2.7220065619        4.5004220324       -1.6263216172
 H          0.9043807027        2.1052335679       -2.3726454386
