  62
        -98.93998304
 C         -0.6286758780       -1.8569098606       -0.0575944499
 C         -1.5805664684       -1.4852333310        0.9179392299
 C         -2.6195553690       -0.5248840519        0.4994486796
 C         -2.6379680092       -0.0991025622       -0.7762978905
 C         -3.5788706499        0.8759110869       -1.4388510809
 C         -5.0704729598        0.7478871660       -1.0954608609
 C         -5.5947637506        1.8890554958       -0.2220793613
 H         -5.1371725113        2.8222234561       -0.5570861015
 H         -6.6722636307        1.9803838450       -0.3758179514
 C         -5.3567508206        1.7223350864        1.2777438188
 H         -5.6437067813        2.6570806664        1.7650959385
 H         -6.0134444801        0.9398638261        1.6643267890
 C         -3.9192179704        1.3840498275        1.6780812190
 H         -3.2082643808        1.9651027079        1.0904394289
 H         -3.7804486407        1.6825704979        2.7197504989
 C         -3.5878040094       -0.1125096723        1.5734794094
 H         -3.1257099792       -0.4500713417        2.5067427795
 H         -4.5086683089       -0.6934583329        1.4664689795
 H         -5.6286795897        0.7606584653       -2.0329534009
 H         -5.2613424991       -0.2125516640       -0.6195542407
 H         -3.2331736106        1.8896998172       -1.2186409011
 H         -3.4348586597        0.7226028967       -2.5109078508
 O         -1.7126034589       -0.5076056119       -1.6916485503
 C         -0.6695255183       -1.3567677810       -1.3573435100
 O          0.1246223719       -1.5846932007       -2.2874585599
 O         -1.5622666981       -1.9314059607        2.0980738201
 C          0.5029819926       -2.7914422297        0.3283579404
 C          1.8210444021       -2.0703932889        0.1824430503
 C          2.8882566325       -2.5608440283       -0.5577579095
 C          4.0647141820       -1.8373078575       -0.6510283696
 C          4.2003440611       -0.6185126572       -0.0135662999
 C          3.1421698607       -0.1233390978        0.7419382899
 C          1.9675939912       -0.8519386086        0.8364120200
 H          1.1534540809       -0.4653925890        1.4325632198
 N          3.2705646098        1.0944054625        1.4318549895
 S          2.0442844990        2.2268602517        1.4376212491
 O          2.6644091281        3.4138605722        1.9853904488
 O          0.8954326593        1.7237571210        2.1452127692
 C          1.6529763789        2.4998029609       -0.2787406410
 C          0.5865835594        1.8353558600       -0.8471291009
 C          0.3245048794        2.0167359594       -2.1957804809
 C          1.1310788888        2.8564712698       -2.9476984611
 C          2.1961866283        3.5233967407       -2.3607699112
 C          2.4647753684        3.3417340113       -1.0143069012
 H          3.2745442280        3.8494235720       -0.5157487612
 H          2.8168387379        4.1798289910       -2.9491143214
 H          0.9238306088        2.9910601193       -3.9975758912
 H         -0.4967501402        1.4853526187       -2.6500971808
 H         -0.0205359602        1.1906203597       -0.2298115307
 H          4.1657131495        1.5458367931        1.3095689595
 H          5.1177139907       -0.0550687766       -0.0899520900
 H          4.8856251323       -2.2266189071       -1.2336272094
 H          2.7987819632       -3.5065023385       -1.0657770692
 H          0.3518618327       -3.0076791695        1.3965463305
 C          0.4203196136       -4.0880060600       -0.4484092392
 C          1.0056128044       -5.3440304494        0.1224390412
 C         -0.4814976057       -5.1748814805        0.0518010110
 H         -1.0353065053       -5.7577904111       -0.6687841788
 H         -1.0215425859       -4.9885414906        0.9688599309
 H          1.4721977749       -6.0482926793       -0.5495186686
 H          1.4769208543       -5.2793952188        1.0915161512
 H          0.4723453635       -3.9372512603       -1.5205801693
