  62
        -98.93804592
 C         -1.4129014137       -1.4881143793       -0.1280544702
 C         -2.5908464466       -1.3022713950        0.6346643999
 C         -3.4545363280       -0.1664512986        0.2630143036
 C         -3.0821613985        0.6275403022       -0.7567954728
 C         -3.7761611124        1.8493999209       -1.3033561834
 C         -5.2962173648        1.7421599376       -1.5017974949
 C         -6.0989662950        2.5924592553       -0.5157951436
 H         -5.5848792249        3.5461068592       -0.3793754093
 H         -7.0750780150        2.8093824236       -0.9555004310
 C         -6.3405424613        1.9488160916        0.8486000749
 H         -7.0646201767        1.1379982620        0.7420575392
 H         -6.7936743232        2.7045245731        1.4946033446
 C         -5.0944465888        1.3943761485        1.5423927958
 H         -5.3040100155        1.3463364865        2.6131049541
 H         -4.2513297530        2.0718890074        1.4142629957
 C         -4.7091799045       -0.0188466974        1.0799464173
 H         -4.5455322251       -0.6577457702        1.9533330618
 H         -5.5406724312       -0.4706040338        0.5308535319
 H         -5.5264853157        2.0889195821       -2.5105386711
 H         -5.6058930029        0.6998476730       -1.4418258536
 H         -3.5476854826        2.6987493853       -0.6550790813
 H         -3.2915946745        2.0479805701       -2.2620315200
 O         -1.9310073313        0.4180132866       -1.4561724498
 C         -1.0759687078       -0.6352393798       -1.1775475714
 O         -0.0836029082       -0.6915621561       -1.9282684235
 O         -2.9096316832       -2.0558501806        1.5928425150
 C         -0.4775738352       -2.6232119068        0.2575083750
 C          0.7888431356       -1.9922893260        0.7787016636
 C          0.8257648339       -1.5113385832        2.0849965408
 C          1.9310615711       -0.8279409112        2.5563318695
 C          3.0120193951       -0.5834422386        1.7264281925
 C          2.9769195774       -1.0486668221        0.4190706925
 C          1.8846849149       -1.7719406687       -0.0402840016
 H          1.8741914153       -2.1207486008       -1.0602802939
 N          4.0405839182       -0.7489441112       -0.4516207466
 S          4.5721290114        0.8386251099       -0.4570239216
 O          5.0459980616        1.0822016033       -1.8021428117
 O          5.5551619631        1.0129279555        0.5852108021
 C          3.1509413898        1.8618600533       -0.0986857546
 C          1.9839428376        1.6785695369       -0.8131979347
 C          0.8926347824        2.4837783209       -0.5284603312
 C          0.9851114358        3.4580880441        0.4527641390
 C          2.1666694833        3.6347332037        1.1561000882
 C          3.2592595169        2.8287840141        0.8811252383
 H          4.1933943111        2.9244873329        1.4106342745
 H          2.2373959128        4.3932637577        1.9189731919
 H          0.1314164179        4.0807850765        0.6695817126
 H         -0.0255144130        2.3291943972       -1.0738844212
 H          1.9081777871        0.9099426942       -1.5662535087
 H          3.8844228140       -1.0719176281       -1.3959125964
 H          3.8748769933       -0.0341087020        2.0673587054
 H          1.9479816296       -0.4684772230        3.5738051221
 H         -0.0334089779       -1.6678157372        2.7219934894
 H         -0.9742672149       -3.1448934806        1.0858525260
 C         -0.2631938188       -3.6007994831       -0.8780808769
 C          0.3556767140       -4.9350013717       -0.5897778333
 C         -1.0977998504       -4.8432540178       -0.9421048232
 H         -1.4181478557       -5.1986687117       -1.9100777942
 H         -1.8252062396       -4.9976002319       -0.1587695214
 H          1.0353528247       -5.3571287175       -1.3142302219
 H          0.6167306640       -5.1505040130        0.4352204184
 H         -0.0220734588       -3.1228332499       -1.8198703433
