  62
        -98.94029047
 C         -2.4439915786       -1.0098710445       -0.0159214715
 C         -2.5505450528        0.3775940843        0.2439831881
 C         -3.8936501225        0.8545186676        0.5994907733
 C         -4.9123349488       -0.0197205047        0.6940169633
 C         -6.3280894522        0.3068904446        1.0858350093
 C         -7.2001171423        0.8043227145       -0.0748310673
 C         -6.8870882992        2.2198242451       -0.5607600018
 H         -7.7027499333        2.5199692627       -1.2214754625
 H         -6.8878605345        2.9030285283        0.2890330612
 C         -5.5614987347        2.3472152031       -1.3243947899
 H         -5.2260774827        1.3570149209       -1.6414738287
 H         -5.7181007219        2.9365069110       -2.2307405312
 C         -4.4372908706        3.0201625708       -0.5364483718
 H         -4.7070008923        4.0576428225       -0.3264737023
 H         -3.5382363926        3.0257614376       -1.1584332149
 C         -4.0904985044        2.3283364340        0.7886790306
 H         -3.1486863263        2.7432779303        1.1564561068
 H         -4.8694000712        2.5179691316        1.5270361189
 H         -7.1059368113        0.1037204447       -0.9076220892
 H         -8.2382649136        0.7804614410        0.2642636451
 H         -6.7634067667       -0.6174565858        1.4714644286
 H         -6.3245117211        1.0494362741        1.8841847637
 O         -4.7604764062       -1.3507901904        0.4602002202
 C         -3.5352025135       -1.8730907417        0.0800816950
 O         -3.5428254680       -3.1035360416       -0.1284632082
 O         -1.5780031493        1.1758527200        0.1905289676
 C         -1.1085740286       -1.6049226390       -0.4190189701
 C         -0.0590335735       -1.3367172186        0.6330584085
 C         -0.3902108116       -1.4688814182        1.9789208902
 C          0.5504630532       -1.2356568901        2.9629961674
 C          1.8430040527       -0.8742324834        2.6272888771
 C          2.1924278129       -0.7646702569        1.2865026715
 C          1.2435854599       -0.9975908944        0.3001840652
 H          1.5371858502       -0.8981363100       -0.7308369661
 N          3.5184725400       -0.4666341098        0.9277388186
 S          3.8634760648        0.4245586962       -0.4617273516
 O          3.1863031663        1.7018918137       -0.4307620852
 O          3.6273464826       -0.3987072923       -1.6202882189
 C          5.6189626451        0.6464936959       -0.2364239062
 C          6.4523753408       -0.4257775338       -0.4943161413
 C          7.8153864834       -0.2784557336       -0.2936285771
 C          8.3202456617        0.9318629629        0.1586791072
 C          7.4722016731        1.9996431460        0.4103184496
 C          6.1072419161        1.8583357151        0.2130959883
 H          5.4108269839        2.6625055860        0.3891648737
 H          7.8678921745        2.9400912054        0.7586092977
 H          9.3816768225        1.0442004526        0.3137551195
 H          8.4783501676       -1.1054641975       -0.4905302519
 H          6.0157403291       -1.3433882291       -0.8523163723
 H          4.0605161155       -0.1247585225        1.7100303302
 H          2.5760210868       -0.6850963978        3.3968030888
 H          0.2738044515       -1.3301011213        4.0024709801
 H         -1.4016870803       -1.7473310819        2.2433736609
 H         -1.2638680796       -2.6933649581       -0.4728197431
 C         -0.7121305244       -1.1035539062       -1.7929590007
 C          0.0778127144       -1.9748871314       -2.7207889021
 C         -1.3671754457       -1.6963155450       -3.0029382578
 H         -1.6186071572       -1.0438785789       -3.8256684242
 H         -2.0821740897       -2.4896523767       -2.8380523657
 H          0.8290518281       -1.5129444435       -3.3442568250
 H          0.3437090688       -2.9617804180       -2.3727731675
 H         -0.5128304777       -0.0369580645       -1.8040348606
