  62
        -98.93991124
 C         -2.9154232391       -1.0769789071        0.2808304236
 C         -2.6431080601       -0.1243575462        1.3018287387
 C         -3.0256629282        1.2620349888        1.0230792292
 C         -3.7073389360        1.5460693061       -0.1010555402
 C         -4.1581274328        2.9112399477       -0.5438353628
 C         -3.0886034316        3.6780098858       -1.3345889820
 C         -1.9038251793        4.1788364949       -0.5066092479
 H         -1.3295817232        4.8573095385       -1.1405941718
 H         -2.2733584332        4.7572073192        0.3407906699
 C         -0.9694373897        3.0701585063       -0.0000121142
 H         -1.1544395235        2.1494456069       -0.5608291609
 H          0.0736177104        3.3401230883       -0.1876582407
 C         -1.0959330354        2.7683037690        1.4936224611
 H         -0.3871577511        1.9702500946        1.7340860912
 H         -0.8062308436        3.6513122264        2.0677369221
 C         -2.5012967717        2.3293956154        1.9335305989
 H         -3.1739860262        3.1865842021        1.9521241613
 H         -2.4322179403        1.9113931030        2.9403526196
 H         -2.7228347717        3.0361599637       -2.1398448157
 H         -3.5747063447        4.5421173707       -1.7930175324
 H         -4.4646577526        3.4974138304        0.3221077941
 H         -5.0243203536        2.7620875341       -1.1919184977
 O         -4.0727262486        0.5852696320       -0.9865855550
 C         -3.6172158191       -0.7309847709       -0.8723538777
 O         -3.9328705270       -1.4383378571       -1.8461348889
 O         -2.0796628112       -0.4277197078        2.3860395150
 C         -2.2781094952       -2.4397033118        0.5086987897
 C         -0.7788810185       -2.2503935745        0.5541215232
 C          0.0138910116       -2.9337323661        1.4671161663
 C          1.3783991229       -2.7087940340        1.5215405660
 C          1.9765228772       -1.7887177168        0.6796712943
 C          1.1916992663       -1.0918187613       -0.2292598111
 C         -0.1698895340       -1.3420833013       -0.3002639823
 H         -0.7773255599       -0.7916510081       -1.0097134305
 N          1.7885157789       -0.1238369920       -1.0604778220
 S          2.6086498414        1.1210265384       -0.2719051839
 O          2.1275363978        1.3015705264        1.0762824504
 O          2.5131847893        2.2625079106       -1.1553837605
 C          4.2931071242        0.5444723657       -0.2474473881
 C          4.9438456998        0.3711153852        0.9581597108
 C          6.2535379325       -0.0836548845        0.9532335734
 C          6.8852195948       -0.3552374704       -0.2507273212
 C          6.2184062630       -0.1731329125       -1.4533376991
 C          4.9097124450        0.2821183163       -1.4552081246
 H          4.3570527576        0.4417283467       -2.3659744164
 H          6.7132439319       -0.3847467816       -2.3875000344
 H          7.9035557245       -0.7105354137       -0.2518933976
 H          6.7735585792       -0.2248268105        1.8870949128
 H          4.4098789883        0.5911984969        1.8690126503
 H          1.1466447743        0.2686500044       -1.7350217667
 H          3.0347828848       -1.5908068512        0.7317499244
 H          1.9813251205       -3.2442180073        2.2388748429
 H         -0.4496412689       -3.6220433988        2.1583650579
 H         -2.5909917399       -2.7621157735        1.5158260146
 C         -2.6962777472       -3.5244019696       -0.4682476861
 C         -1.8861340284       -3.8751640278       -1.6766070139
 C         -1.9609739287       -4.8302824613       -0.5250953873
 H         -2.5375775113       -5.7349854515       -0.6423604749
 H         -1.0788739240       -4.9411164630        0.0865544330
 H         -2.4181927470       -4.1039034710       -2.5870161419
 H         -0.9592137507       -3.3451077144       -1.8359863496
 H         -3.7723932711       -3.5682149612       -0.5867791565
