  62
        -98.93727348
 C         -1.0571694104       -1.4621935101        0.2062477008
 C         -2.1573408903       -1.0111824598        0.9833617007
 C         -3.2162527500       -0.2969167494        0.2557466005
 C         -3.0241185097        0.0075014905       -1.0408026394
 C         -4.0265934194        0.7064650708       -1.9135541796
 C         -3.8987037789        2.2347992208       -1.8570730596
 C         -3.8504890688        2.8020212308       -0.4392526796
 H         -2.9406924190        2.4541103205        0.0507203305
 H         -3.7830210985        3.8883376308       -0.5263481296
 C         -5.0481354991        2.4269718112        0.4424078403
 H         -5.3952954488        3.3196313913        0.9665083503
 H         -5.8741439591        2.0731062315       -0.1754039398
 C         -4.7221534795        1.3777150411        1.5061445004
 H         -5.5535723996        1.3395011814        2.2149229303
 H         -3.8320507195        1.6802420508        2.0625315104
 C         -4.5075474700       -0.0487507190        0.9866248704
 H         -4.4865578503       -0.7139195990        1.8552188704
 H         -5.3541335700       -0.3364788987        0.3578110903
 H         -4.7438898487        2.6669760011       -2.3960834897
 H         -2.9841119187        2.5282171605       -2.3785052095
 H         -5.0267246795        0.4090970112       -1.6006416397
 H         -3.8677590194        0.3767641008       -2.9420470595
 O         -1.8732625898       -0.2835895199       -1.7017377893
 C         -0.8868440301       -1.0798483602       -1.1227699692
 O          0.0614142799       -1.3424118806       -1.8858401991
 O         -2.2670124005       -1.2329634397        2.2170093506
 C         -0.1026647108       -2.4347097705        0.8713782409
 C          1.3351571593       -2.2596928710        0.4491333110
 C          2.0396842591       -3.2470711112       -0.2296515789
 C          3.3822496292       -3.0882704217       -0.5211540288
 C          4.0514994895       -1.9406861319       -0.1425850287
 C          3.3550930898       -0.9357291216        0.5143743812
 C          2.0099137797       -1.0961265112        0.8066289211
 H          1.4802963199       -0.3095124410        1.3262167710
 N          4.0079006602        0.2684529181        0.8944983913
 S          3.8422910907        1.5167419282       -0.2200155888
 O          3.8619540707        1.0131414282       -1.5755076188
 O          4.8850750210        2.4637573978        0.1141792113
 C          2.2577418009        2.2232799687        0.1495721211
 C          1.1590086908        1.8306400191       -0.5869416690
 C         -0.0689696790        2.4067842095       -0.3066207092
 C         -0.1786434488        3.3516670096        0.7018448608
 C          0.9347609913        3.7272648592        1.4383853409
 C          2.1674995311        3.1602736788        1.1601652210
 H          3.0627598011        3.4329369785        1.6941344411
 H          0.8436473414        4.4610547392        2.2229191609
 H         -1.1372566886        3.8000510599        0.9122102307
 H         -0.9298231190        2.1068858398       -0.8825028993
 H          1.2740484807        1.0841238190       -1.3582036590
 H          4.9964780001        0.1352604378        1.0656262814
 H          5.1002238696       -1.8090964222       -0.3654197586
 H          3.9112758289       -3.8671013518       -1.0494897387
 H          1.5343444888       -4.1437096410       -0.5472744989
 H         -0.1641580808       -2.1937207004        1.9456300409
 C         -0.5641281412       -3.8823736803        0.7241170609
 C         -2.0110176113       -4.2477891498        0.5907727607
 C         -1.0870693813       -4.4170484101       -0.5753034492
 H         -0.8118864416       -5.4180843602       -0.8736827491
 H         -1.1696074510       -3.7239189001       -1.3996154292
 H         -2.3588820917       -5.1320782197        1.1032572107
 H         -2.7388494211       -3.4512359496        0.5579053906
 H          0.0409723285       -4.5584924005        1.3200999709
