  62
        -98.93709633
 C          2.2891748072        1.0993170617       -0.4544897078
 C          3.0507165226        0.1191719626       -1.1390387677
 C          4.4196297736       -0.0905895951       -0.6368479006
 C          4.8645170385        0.6278939537        0.4086916603
 C          6.2093935137        0.4656199200        1.0543997936
 C          6.1549074015       -0.5505609495        2.2039068978
 C          5.4717713078       -1.8671228060        1.8336821741
 H          5.5202904818       -2.5156970795        2.7110869442
 H          4.4148343228       -1.6761377973        1.6339670952
 C          6.0932945719       -2.5884510962        0.6295753725
 H          6.1895554111       -3.6495384517        0.8690750008
 H          7.0979976152       -2.2056363787        0.4466877389
 C          5.2731395194       -2.4951968012       -0.6583361289
 H          4.2406831501       -2.7909149833       -0.4567908857
 H          5.6844741357       -3.2103910944       -1.3755361665
 C          5.2566815295       -1.1216485128       -1.3409082377
 H          6.2795542406       -0.7630987355       -1.4717337127
 H          4.8066302355       -1.2481227892       -2.3298827943
 H          7.1751787271       -0.7486652693        2.5374930099
 H          5.6063366511       -0.1026502987        3.0358171776
 H          6.9301379347        0.1440754164        0.3050887524
 H          6.5191665316        1.4338491169        1.4514638534
 O          4.1067221798        1.5643075106        1.0363852437
 C          2.8094188742        1.8137657832        0.6281050513
 O          2.2239211893        2.6928158629        1.2946594765
 O          2.6311612193       -0.5559061011       -2.1118514212
 C          0.8601776237        1.4544958902       -0.8292460134
 C         -0.1305601663        0.5533517390       -0.1411089174
 C         -0.0173962457       -0.8327611356       -0.1927118787
 C         -0.9653340358       -1.6398355786        0.4104818767
 C         -2.0508725371       -1.0823078243        1.0649549095
 C         -2.1655427741        0.2985542470        1.1296217802
 C         -1.2065898365        1.1061824163        0.5376964841
 H         -1.3059238305        2.1821739570        0.5964009734
 N         -3.3192820246        0.8594634410        1.7464614395
 S         -4.5383597226        1.1120298284        0.6035125381
 O         -4.0198195673        1.7920327048       -0.5643335120
 O         -5.6079713104        1.7883990657        1.3022191280
 C         -5.0139549892       -0.5466300278        0.1827863425
 C         -4.4851608029       -1.1291204369       -0.9522165695
 C         -4.8196938538       -2.4412777655       -1.2470260681
 C         -5.6707815777       -3.1421979707       -0.4059202912
 C         -6.1953692993       -2.5408818257        0.7286658082
 C         -5.8629862618       -1.2300014761        1.0310372413
 H         -6.2468847076       -0.7208237269        1.8995810006
 H         -6.8580790968       -3.0896406355        1.3783121802
 H         -5.9273112311       -4.1639645348       -0.6375775442
 H         -4.4116590493       -2.9105028438       -2.1277630239
 H         -3.8272809786       -0.5472085468       -1.5781209775
 H         -3.1253247516        1.7447108423        2.1970922914
 H         -2.7989484388       -1.7011979014        1.5328909936
 H         -0.8636051654       -2.7130172580        0.3617821190
 H          0.8171389131       -1.2674412998       -0.7220041244
 H          0.7067784511        2.4717715840       -0.4337440031
 C          0.6253375069        1.5275223724       -2.3328033060
 C         -0.1505094568        0.5116611481       -3.1098897911
 C         -0.7387414776        1.8659264422       -2.8606509520
 H         -0.8155250685        2.5591885885       -3.6849907100
 H         -1.5519683783        1.9402951869       -2.1514814548
 H          0.2014489698        0.2693114981       -4.1008666043
 H         -0.5669033942       -0.3299221764       -2.5799020840
 H          1.4683013130        1.9799845200       -2.8459409080
