  62
        -98.93574339
 C         -2.3038290966       -0.6556708963        0.0411260913
 C         -3.3691635993       -0.4616105322        0.9534469418
 C         -4.3605057483        0.5560939697        0.5822364213
 C         -4.1958365769        1.2607651042       -0.5517248488
 C         -5.0767568933        2.3737079704       -1.0547934190
 C         -6.5138216443        1.9794525518       -1.4475266713
 C         -7.5489943196        2.1688672998       -0.3318105888
 H         -7.1813409385        2.9244306770        0.3635355557
 H         -8.4672654897        2.5660847363       -0.7691566800
 C         -7.9345917858        0.9052533685        0.4433546042
 H         -8.4662132457        1.2157479081        1.3454507287
 H         -8.6283744701        0.3147034287       -0.1594404531
 C         -6.7791220027       -0.0133157310        0.8414130078
 H         -7.1606370042       -0.7549227127        1.5461324079
 H         -6.4337588590       -0.5691505568       -0.0335933083
 C         -5.5670575848        0.7081777554        1.4622254408
 H         -5.7899117164        1.7607168796        1.6303769061
 H         -5.3132292881        0.2519720776        2.4211378882
 H         -6.7978829878        2.6167159794       -2.2864625495
 H         -6.5236276653        0.9506373745       -1.8065244692
 H         -5.1112662636        3.1619102123       -0.2993403956
 H         -4.5648738357        2.7746632433       -1.9319298081
 O         -3.1410741126        1.0616814832       -1.3883410669
 C         -2.1797102707        0.0969400217       -1.1265322852
 O         -1.2904638921        0.0158872265       -1.9949903467
 O         -3.4828674513       -1.1048339973        2.0310341453
 C         -1.2536582447       -1.7040778344        0.3668240894
 C          0.0679075929       -1.0156908731        0.6006327392
 C          0.2308446129       -0.2590903394        1.7587098913
 C          1.4139640307        0.4097778172        2.0053077622
 C          2.4589556694        0.3462904183        1.0992317184
 C          2.3066063956       -0.4030246077       -0.0585262850
 C          1.1198133803       -1.0854061643       -0.2979721308
 H          1.0148319181       -1.6574145875       -1.2064210514
 N          3.3553051449       -0.4543393266       -0.9914211428
 S          4.9000642243       -0.8170294063       -0.4523469502
 O          5.5859784361       -1.3611885155       -1.6040810076
 O          4.8668374053       -1.6508067589        0.7270678181
 C          5.6051345222        0.7694758476       -0.0569693261
 C          6.1550833295        0.9862119063        1.1911943186
 C          6.7136883789        2.2234830710        1.4720571550
 C          6.7131416017        3.2163252109        0.5044356683
 C          6.1579449215        2.9821460691       -0.7449518125
 C          5.5991558457        1.7471839924       -1.0324419453
 H          5.1603112304        1.5251263189       -1.9909868399
 H          6.1581254025        3.7571618216       -1.4944236590
 H          7.1473765249        4.1787183071        0.7248926653
 H          7.1456071734        2.4074434776        2.4426662652
 H          6.1277952082        0.1863610657        1.9139932664
 H          3.1296231570       -0.9640090265       -1.8329657158
 H          3.3835685032        0.8692478039        1.2817916729
 H          1.5251836819        0.9897679292        2.9088686626
 H         -0.5893336527       -0.2020030978        2.4611683032
 H         -1.5755070215       -2.1503403070        1.3182185623
 C         -1.2090255623       -2.7890146345       -0.6879992571
 C         -0.5448290947       -4.0959504079       -0.3762287561
 C         -2.0363780452       -4.0237975460       -0.5014144975
 H         -2.5033269357       -4.4667191332       -1.3683546939
 H         -2.6296210577       -4.0955239838        0.3983098323
 H          0.0134809801       -4.5917997985       -1.1560179737
 H         -0.1217400910       -4.2163358459        0.6097279257
 H         -1.1211562929       -2.4000067125       -1.6958213892
