  62
        -98.94567816
 C          1.1930883354        1.4432546073        0.7332614091
 C          2.0518447786        1.3559324373       -0.3886506309
 C          2.9892464205        0.2239667373       -0.3887480243
 C          2.9648439357       -0.6545614128        0.6299419534
 C          3.8271554596       -1.8793496295        0.7216912625
 C          3.1384124148       -3.0981811519        0.0926323636
 C          2.5547223506       -2.8375009413       -1.2954699758
 H          1.7375936289       -2.1169637336       -1.2103035541
 H          2.1191782160       -3.7755593235       -1.6449204773
 C          3.5725392757       -2.3348401252       -2.3287921801
 H          3.4186327172       -2.8760780807       -3.2646734154
 H          4.5852811757       -2.5562188251       -1.9895545271
 C          3.4639834133       -0.8444149971       -2.6548742678
 H          2.4292423831       -0.5966366642       -2.9056670425
 H          4.0720815574       -0.6446008304       -3.5413194504
 C          3.9332529389        0.1133365886       -1.5527082057
 H          3.9909601970        1.1156781562       -1.9871698919
 H          4.9316025272       -0.1729012870       -1.2156421322
 H          2.3223362496       -3.4055605648        0.7479190889
 H          3.8629957434       -3.9125059449        0.0375464977
 H          4.7746026961       -1.6849059644        0.2225059469
 H          4.0192897939       -2.0858139736        1.7758290599
 O          2.1136881739       -0.5460656676        1.6826281179
 C          1.2067128332        0.4983308972        1.7590061176
 O          0.4791643722        0.4760632697        2.7723366243
 H         -1.2334358204        0.3720981711        0.2782340236
 C         -1.4450268154        1.1424247081       -0.4498344591
 C         -0.8132225033        2.3752191976       -0.3353335285
 C         -1.0940294713        3.3565916985       -1.2755636949
 C         -1.9757531272        3.0972173356       -2.3111780889
 C         -2.6096310892        1.8730270081       -2.4151852137
 C         -2.3450873343        0.8875805819       -1.4700539263
 N         -2.9654478465       -0.3702425581       -1.5339910646
 S         -3.5373935875       -1.0640817276       -0.1183953843
 O         -4.5981266426       -1.9474332128       -0.5572251424
 O         -3.9104697133       -0.0560016901        0.8458391951
 C         -2.2021739534       -2.0660064795        0.4980755813
 C         -1.7131762478       -1.8506697515        1.7704936025
 C         -0.7291400671       -2.6927438715        2.2635304936
 C         -0.2602726228       -3.7355218149        1.4807655143
 C         -0.7522369093       -3.9319152316        0.1984896843
 C         -1.7335701371       -3.0915816335       -0.3001711431
 H         -2.1516433333       -3.2200459415       -1.2847244633
 H         -0.3768584363       -4.7398856072       -0.4086395994
 H          0.4874870595       -4.4041541260        1.8786441829
 H         -0.3322416711       -2.5185102944        3.2508405165
 H         -2.0967823285       -1.0277317615        2.3533365757
 H         -3.6284570576       -0.4754865237       -2.2886022940
 H         -3.3023994135        1.6765020074       -3.2195288215
 H         -2.1780417533        3.8638472895       -3.0438545501
 H         -0.6157869671        4.3195012920       -1.2060370754
 C          0.1564963119        2.5508901699        0.8088437749
 H         -0.3982528469        2.3880449967        1.7447423192
 C          0.8118296340        3.9136449858        0.8610140643
 C          0.0779211215        5.0716592696        1.4655516565
 C          1.2402437912        4.4610858843        2.1878838971
 H          2.1642475482        5.0167984266        2.2425759974
 H          1.0414017143        3.8580763107        3.0621925176
 H         -0.9132695145        4.8872842801        1.8523334067
 H          0.2048560153        6.0499780074        1.0272615691
 H          1.4568708209        4.1019201979        0.0111171911
 O          2.0427936707        2.1787602984       -1.3409742129
