  62
        -98.94251019
 C         -2.3466186335        0.5477291003       -0.0924834135
 C         -1.4882635205       -0.1571518224        0.7794050449
 C         -1.4304205830       -1.6196899062        0.6171554752
 C         -2.1925779826       -2.1984537103       -0.3274223398
 C         -2.2629365426       -3.6549800714       -0.7053660891
 C         -0.9015757391       -4.3244528031       -0.9577059909
 C         -0.5469617513       -5.3795252879        0.0905941591
 H         -1.4470028961       -5.9519910142        0.3252440917
 H          0.1776851701       -6.0722323838       -0.3432250970
 C          0.0554997232       -4.8283083675        1.3812676724
 H          1.0658403058       -4.4662263482        1.1772956691
 H          0.1414596588       -5.6591626700        2.0857492484
 C         -0.7328334609       -3.6987287091        2.0487938542
 H         -0.4649645027       -3.6920057996        3.1075846387
 H         -1.8032146327       -3.8903402281        1.9927293195
 C         -0.4139124550       -2.3063521559        1.4882405140
 H         -0.2490348596       -1.6108138635        2.3176785293
 H          0.5278492529       -2.3314318047        0.9280380938
 H         -0.1241608479       -3.5608868386       -1.0136138967
 H         -0.9400744327       -4.8123510993       -1.9334152962
 H         -2.8701612105       -3.6893483178       -1.6125299624
 H         -2.8120588755       -4.2010858995        0.0644546860
 O         -3.0560688287       -1.4846129743       -1.1070020284
 C         -3.1245911957       -0.1052998722       -1.0439162934
 O         -3.9037738222        0.4153359664       -1.8700240874
 O         -0.7820371880        0.4162680432        1.6519339586
 C         -2.3530316502        2.0649473244       -0.0698176939
 C         -0.9377149164        2.5743782978       -0.2132144499
 C         -0.4534016561        3.6799159032        0.4753232355
 C          0.8640811023        4.0787825641        0.3272471073
 C          1.7314631297        3.3719501828       -0.4855365280
 C          1.2530208036        2.2720925092       -1.1878427275
 C         -0.0773216252        1.9051293194       -1.0747310692
 H         -0.4304764035        1.0500087014       -1.6331910278
 N          2.0955944110        1.4965945368       -2.0131782808
 S          2.3595272173       -0.0934882641       -1.5474630421
 O          3.2929630488       -0.6168331560       -2.5230972241
 O          1.1074555913       -0.7937111440       -1.4272950407
 C          3.1800141997        0.0407423883        0.0315326715
 C          4.5586083683       -0.0554892200        0.0634419905
 C          5.2168499618        0.1126303242        1.2703988452
 C          4.4885097278        0.3836196242        2.4193140894
 C          3.1069706234        0.4819235186        2.3682734964
 C          2.4392156665        0.3117677272        1.1643209434
 H          1.3634185322        0.3798437765        1.1081405968
 H          2.5334143601        0.6928210068        3.2565687805
 H          4.9992992310        0.5181023988        3.3597838484
 H          6.2913821532        0.0343518894        1.3108374682
 H          5.0803958118       -0.2707654376       -0.8552075603
 H          2.9900373140        1.9302290002       -2.1995041516
 H          2.7671432410        3.6632559771       -0.5764993699
 H          1.2254603158        4.9387404045        0.8700371010
 H         -1.1074965194        4.2253635788        1.1359130408
 H         -2.9309402829        2.3830506457       -0.9504107568
 C         -3.0449002565        2.5733753161        1.1790539729
 C         -3.8112837710        3.8609696575        1.1531669814
 C         -4.5420679319        2.5552735211        1.2309765225
 H         -5.0232038965        2.2845382882        2.1587610736
 H         -5.0610028325        2.2021855703        0.3514024184
 H         -3.7953931005        4.4885590440        2.0314855286
 H         -3.8475052984        4.4040693081        0.2208339465
 H         -2.5091386004        2.3112680989        2.0841431546
