  62
        -98.94648364
 C         -0.5675061517       -2.0560600376       -0.2942536390
 C          0.2332083510       -2.0188967524        0.8762317604
 C          1.6884799784       -2.0797869725        0.6559622286
 C          2.1844203207       -2.1649058745       -0.5906835042
 C          3.6347168988       -2.3047661627       -0.9681453525
 C          4.4193794469       -0.9872041970       -1.0190116826
 C          4.7357160900       -0.3660022489        0.3417910940
 H          5.1916030089       -1.1154777028        0.9894628855
 H          5.4784522020        0.4163887390        0.1747007948
 C          3.5190496957        0.2537285154        1.0417274729
 H          3.7806915370        1.2371206990        1.4403424618
 H          2.7246140110        0.4176660351        0.3111836100
 C          2.9550081422       -0.5603992304        2.2063629263
 H          3.6796483796       -0.5806582854        3.0242970458
 H          2.0574115312       -0.0485468432        2.5645367562
 C          2.5803387834       -2.0068367134        1.8580324601
 H          2.0303969094       -2.4270321104        2.7041835590
 H          3.4819959907       -2.5994695336        1.6982122115
 H          5.3634677344       -1.1931049480       -1.5284873703
 H          3.8631340591       -0.2671586142       -1.6232503107
 H          3.6494562634       -2.7515759235       -1.9647662587
 H          4.1231621291       -2.9904466207       -0.2746007968
 O          1.3840111118       -2.1805740760       -1.6896127901
 C          0.0055588438       -2.1183199152       -1.5686416618
 O         -0.5990751437       -2.1345239938       -2.6592020838
 O         -0.2133719362       -1.9573547047        2.0510686447
 C         -2.0877756464       -1.9965094978       -0.2914492021
 C         -2.5647578329       -0.5638640674       -0.3561737907
 C         -3.4974921365       -0.1703815246       -1.3086711071
 C         -3.9141519194        1.1461550091       -1.3850146716
 C         -3.3833545890        2.0992817393       -0.5350317258
 C         -2.4472035587        1.7177758756        0.4192415225
 C         -2.0654483427        0.3873378514        0.5225018523
 H         -1.3578952337        0.1026335514        1.2862375134
 N         -1.8664044958        2.6722390269        1.2741988803
 S         -0.1963194124        2.7155277830        1.4062987689
 O          0.2730374763        1.5965617109        2.1762548338
 O          0.0850198306        4.0271452778        1.9498010368
 C          0.3915986823        2.6295998858       -0.2759250100
 C          0.5839923228        1.4000885152       -0.8732187475
 C          0.9715654943        1.3524511405       -2.2034091876
 C          1.1651521987        2.5296828415       -2.9091610234
 C          0.9742923099        3.7579580478       -2.2939050279
 C          0.5773330360        3.8107323144       -0.9678037561
 H          0.4219673235        4.7428838343       -0.4490816795
 H          1.1294744879        4.6712047109       -2.8453220037
 H          1.4661886587        2.4848854976       -3.9439179683
 H          1.1072462476        0.3927613521       -2.6792542203
 H          0.4279992822        0.4976461265       -0.3026672859
 H         -2.2243572347        3.6082483225        1.1440554975
 H         -3.6871375863        3.1324739630       -0.6079151475
 H         -4.6425749631        1.4375491486       -2.1259658130
 H         -3.8844342666       -0.9024230107       -2.0015397468
 H         -2.4056736090       -2.4900905264       -1.2207606786
 C         -2.7384767950       -2.7162708235        0.8728565604
 C         -4.1300924892       -3.2474383149        0.7128339312
 C         -2.9698550833       -4.1934260453        0.7857272137
 H         -2.8367019569       -4.7871548144        1.6774201807
 H         -2.6622291018       -4.6943198300       -0.1209785118
 H         -4.8008738993       -3.1904687054        1.5562242641
 H         -4.6130831537       -3.1139133548       -0.2432512108
 H         -2.4600821865       -2.3133427818        1.8375993900
