  62
        -98.94205928
 C         -1.9267536732       -0.8511449770        0.5255406946
 C         -1.4656303028        0.2829559757        1.2307945287
 C         -1.9643523985        1.6011430107        0.7977205416
 C         -2.8216082532        1.6574177879       -0.2378277723
 C         -3.4608524306        2.8668323074       -0.8692815390
 C         -2.4971638168        3.6495432260       -1.7713439046
 C         -1.1288392636        3.9251376647       -1.1546330233
 H         -0.6282660562        2.9771438125       -0.9456706408
 H         -0.5242315855        4.4381779386       -1.9082450999
 C         -1.1478817380        4.7962364486        0.1002455187
 H         -0.1072789310        5.0267044062        0.3430403997
 H         -1.6523679846        5.7383309892       -0.1267460427
 C         -1.7956255196        4.1787559516        1.3435181972
 H         -2.8790897873        4.2589022534        1.3109879354
 H         -1.4666166913        4.7660130997        2.2056865938
 C         -1.3874137459        2.7344377003        1.6108730632
 H         -1.6108686698        2.4897716630        2.6561057829
 H         -0.2977685463        2.6520984937        1.5175947154
 H         -2.9733865996        4.5933390638       -2.0453434799
 H         -2.3394958292        3.0712344401       -2.6853701054
 H         -4.2859745715        2.4962557541       -1.4821674782
 H         -3.8801946482        3.5141206687       -0.1046712523
 O         -3.2301856537        0.5372329572       -0.9001468898
 C         -2.7711849514       -0.7258525849       -0.5760731249
 O         -3.1962127325       -1.6300493149       -1.3216476348
 O         -0.6567384649        0.2058002268        2.1967991682
 C         -1.3656507232       -2.2186038930        0.8872239002
 C         -0.4259624174       -2.6073068369       -0.2279795938
 C         -0.6177164182       -3.6851046452       -1.0800701171
 C          0.2401062048       -3.8824326417       -2.1498594755
 C          1.2792508585       -3.0061692164       -2.4021964206
 C          1.4878940489       -1.9307362890       -1.5429546885
 C          0.6595336806       -1.7671749531       -0.4475407069
 H          0.8180200275       -0.9357666964        0.2194457972
 N          2.5296756049       -1.0215996017       -1.7629313628
 S          2.4561743457        0.5718452294       -1.2475128171
 O          1.1014615083        1.0586400675       -1.1468568888
 O          3.3177306061        1.2771782706       -2.1749331437
 C          3.2676973794        0.5206483792        0.3375249659
 C          4.6297329660        0.2828739220        0.3295121338
 C          5.3110938071        0.2210743777        1.5330429562
 C          4.6225043092        0.3977335489        2.7243390634
 C          3.2579682828        0.6374617665        2.7165654039
 C          2.5698191571        0.7006973824        1.5136544211
 H          1.5039542393        0.8726722545        1.4931408294
 H          2.7135307040        0.7716346958        3.6377001258
 H          5.1507354599        0.3488985088        3.6635186315
 H          6.3730012190        0.0351817167        1.5403174823
 H          5.1265001843        0.1640022242       -0.6189479868
 H          3.0040752425       -1.1152383915       -2.6481902477
 H          1.9212085076       -3.1448237136       -3.2588664517
 H          0.0804665254       -4.7195780566       -2.8127698235
 H         -1.4473606500       -4.3545220674       -0.9237436208
 H         -0.7725161444       -2.0608335369        1.7992445481
 C         -2.4515030044       -3.2302764434        1.1731522014
 C         -2.1243831171       -4.4630823707        1.9604749694
 C         -2.9583881286       -3.3807576960        2.5751326906
 H         -4.0123864671       -3.5610471165        2.7240486910
 H         -2.5105543973       -2.7590759026        3.3365406948
 H         -2.6059149601       -5.3903707665        1.6899930616
 H         -1.1082166649       -4.5779811559        2.3059138537
 H         -3.1747658999       -3.3117989538        0.3706687663
