  62
        -98.94608104
 C          1.7466095297        1.2072801702       -0.3087556579
 C          3.0831388896        1.3181757103        0.1466531124
 C          4.0032726598        0.2710011204       -0.3102928075
 C          3.5575116400       -0.6981088095       -1.1304980477
 C          4.3788304703       -1.8222520194       -1.7011313677
 C          4.5190336302       -3.0300041095       -0.7643141178
 C          5.4385666699       -2.8157842995        0.4385488024
 H          5.6144890800       -3.7961118795        0.8858434724
 H          6.4019629400       -2.4375939193        0.0951659427
 C          4.8683863596       -1.8786537597        1.5124920624
 H          3.7909545496       -1.7709340398        1.3674011822
 H          5.0151118795       -2.3236918498        2.4991808724
 C          5.5049389695       -0.4890064396        1.5441156127
 H          6.5589864894       -0.5747155195        1.8172465229
 H          5.0044855092        0.0999578303        2.3170444727
 C          5.4046201097        0.2830106105        0.2215710628
 H          5.6808662895        1.3234220205        0.4094943330
 H          6.0943749099       -0.1347896693       -0.5113724771
 H          3.5249353902       -3.3192133496       -0.4159533280
 H          4.9177071604       -3.8568201893       -1.3565987378
 H          3.8692683905       -2.1486717193       -2.6103041978
 H          5.3683301903       -1.4528928492       -1.9716503174
 O          2.2698227701       -0.7579871996       -1.5616340380
 C          1.3293811400        0.1736874302       -1.1457244981
 O          0.1835397501       -0.0277605898       -1.5899594683
 H         -2.0162127604        2.0151905998       -0.2570838686
 C         -1.6686482106        1.5379594697        0.6433527214
 C         -0.3264968806        1.5554064298        0.9873737317
 C          0.0716304792        0.9115452597        2.1578477817
 C         -0.8478919309        0.2661142295        2.9601602515
 C         -2.1864069108        0.2404478294        2.6065488412
 C         -2.5945149607        0.8781021495        1.4424762312
 N         -3.9527968206        0.8861721394        1.0680521809
 S         -4.3903666902        0.2395289595       -0.4149600793
 O         -3.7868412301        0.9964826197       -1.4790539391
 O         -5.8374073402        0.2165759694       -0.3883059696
 C         -3.7709670400       -1.4324459404       -0.3619089893
 C         -2.4446246300       -1.6795328602       -0.6523235191
 C         -1.9680171698       -2.9755709102       -0.5216612191
 C         -2.8135148398       -3.9919527603       -0.1059913494
 C         -4.1441932399       -3.7249416605        0.1801166603
 C         -4.6276456700       -2.4330279405        0.0570098804
 H         -5.6549421701       -2.1794976207        0.2639721402
 H         -4.8018853799       -4.5170144306        0.5001565601
 H         -2.4328951197       -4.9964352903       -0.0068546294
 H         -0.9319809498       -3.1730711901       -0.7486537289
 H         -1.7986625400       -0.8800159001       -0.9806135088
 H         -4.5673308107        0.5149823693        1.7798926007
 H         -2.9093075109       -0.2646456007        3.2292707010
 H         -0.5227685011       -0.2244663405        3.8650366015
 H          1.1185535491        0.9297588098        2.4287296720
 C          0.7292519795        2.2365473600        0.1519725720
 H          1.2883062092        2.9224760100        0.8055375822
 C          0.1762326096        3.0244791801       -1.0152483180
 C         -0.4020945606        4.3873714700       -0.7836731380
 C          0.9128813196        4.2405902702       -1.4871628377
 H          0.9569045398        4.4373140904       -2.5479013877
 H          1.8115895794        4.5154999903       -0.9543072975
 H         -1.2654743905        4.6837461500       -1.3602116981
 H         -0.3969829408        4.7663260599        0.2272245521
 H         -0.2863291902        2.3989168601       -1.7706946282
 O          3.4850453793        2.2446352402        0.8999505526
