  62
        -98.94434520
 C         -1.8358218296       -0.7560364304        0.2743601500
 C         -2.3502924399        0.5567663894        0.1487957189
 C         -3.7885202500        0.7011282893        0.4095503086
 C         -4.5147016198       -0.3704979106        0.7762878793
 C         -5.9857997498       -0.3775768207        1.0923021891
 C         -6.8867422596       -0.4997954519       -0.1443120609
 C         -6.9651092998        0.7525176073       -1.0184202619
 H         -7.7893638897        0.6032070766       -1.7187265819
 H         -7.2175420701        1.6126662578       -0.3975400026
 C         -5.6879623098        1.0492992970       -1.8169060220
 H         -5.9516899997        1.2930816761       -2.8485934722
 H         -5.0620497695        0.1545208671       -1.8502820512
 C         -4.8574462801        2.2131293277       -1.2753609228
 H         -5.4271632903        3.1412208874       -1.3607130936
 H         -3.9607909901        2.3111953474       -1.8929338227
 C         -4.4109022303        2.0456140489        0.1830787674
 H         -3.6527763805        2.8025299693        0.3991967469
 H         -5.2560436404        2.1944127493        0.8548286472
 H         -7.8938876896       -0.7340679919        0.2080536791
 H         -6.5406864693       -1.3430899423       -0.7463996902
 H         -6.2467581101        0.5240887597        1.6468909784
 H         -6.1622223597       -1.2441036803        1.7331515498
 O         -3.9717171695       -1.6083680004        0.9238227104
 C         -2.6316004894       -1.8362302403        0.6551240908
 O         -2.2716001891       -3.0220182100        0.8008205618
 O         -1.6508507001        1.5554426593       -0.1632496718
 C         -0.3724338195       -1.0261472402       -0.0265709295
 C          0.5078614502       -0.1676286493        0.8472846199
 C          0.2588635900       -0.1330055683        2.2177444098
 C          1.0284272896        0.6472737926        3.0571276493
 C          2.0752192095        1.3985831724        2.5514097889
 C          2.3397402097        1.3626302514        1.1883751189
 C          1.5636257701        0.5764839005        0.3453351494
 H          1.7812305202        0.5828194997       -0.7093935705
 N          3.3929758296        2.1136599312        0.6505434185
 S          4.2774878100        1.5447832904       -0.6411231609
 O          5.5415243598        2.2442296408       -0.5455232113
 O          3.5563134001        1.7265745592       -1.8754988012
 C          4.5257094303       -0.1964770293       -0.3337340495
 C          4.3269899807       -1.0945499502       -1.3615874388
 C          4.5343687310       -2.4444878699       -1.1264998077
 C          4.9330633709       -2.8717624488        0.1300367427
 C          5.1342836906       -1.9567602080        1.1521383720
 C          4.9331379403       -0.6058457182        0.9207126409
 H          5.0894790000        0.1247580925        1.6972295303
 H          5.4456783205       -2.2921529071        2.1282756623
 H          5.0885796312       -3.9232421786        0.3134249636
 H          4.3808929513       -3.1555151906       -1.9226817672
 H          4.0092539908       -0.7204201810       -2.3210494992
 H          3.9621585294        2.6068954519        1.3216142582
 H          2.6734488493        2.0163486731        3.2036790884
 H          0.8151577895        0.6706973434        4.1151780393
 H         -0.5595835200       -0.7198219982        2.6125116302
 H         -0.1958420593       -2.0786568100        0.2396765213
 C         -0.1178065993       -0.8495039814       -1.5089194597
 C          0.9423610310       -1.6520362717       -2.1981001789
 C         -0.5046013589       -1.9549969922       -2.4433152988
 H         -0.9335578389       -1.6964974731       -3.3999456691
 H         -0.9235302788       -2.8487708720       -2.0038072682
 H          1.5068286510       -1.1801254822       -2.9882554492
 H          1.5120524010       -2.3458881310       -1.5987942682
 H         -0.2864044095        0.1683231083       -1.8431995505
