  62
        -98.93969743
 C          2.1153235246        0.3729041526        0.2531718938
 C          2.8236275939       -0.8408853296        0.0574246015
 C          4.1808220324       -0.7278840218       -0.4906375474
 C          4.6649866441        0.4904346796       -0.7923578240
 C          6.0480477386        0.7618972459       -1.3076860184
 C          7.0277002996        1.0263620510       -0.1558734854
 C          6.9657923211       -0.0173081701        0.9594061016
 H          7.7203784512        0.2535645884        1.7010681583
 H          5.9932667039        0.0452734289        1.4531537485
 C          7.2031441358       -1.4602791741        0.4925550607
 H          7.6827205754       -1.4590727195       -0.4869185754
 H          7.8901458959       -1.9453296357        1.1892232558
 C          5.9419461167       -2.3246018199        0.4373542769
 H          5.4073241694       -2.2549359096        1.3882222819
 H          6.2487709884       -3.3663918474        0.3112469572
 C          4.9575998670       -1.9982560958       -0.6929914644
 H          4.2146936338       -2.8005780248       -0.7288369648
 H          5.4873579568       -1.9781759243       -1.6476831280
 H          6.7981371968        2.0029230981        0.2765220913
 H          8.0390188945        1.0649132025       -0.5646109717
 H          6.3837772601       -0.0897959756       -1.8960902881
 H          6.0093210435        1.6435974138       -1.9494781804
 O          3.9524284680        1.6293664082       -0.6151246076
 C          2.6651258298        1.6097529020       -0.0881765663
 O          2.1521574090        2.7385052380        0.0105902913
 O          2.3396772691       -1.9710676270        0.3382255750
 C          0.7232181074        0.2557405971        0.8456687116
 C         -0.3284921689        0.1382223185       -0.2289346865
 C         -0.3435464847        0.9946005931       -1.3262401330
 C         -1.3180298539        0.8723560488       -2.2994688970
 C         -2.3089655581       -0.0877788515       -2.1864283761
 C         -2.3078783787       -0.9418111569       -1.0911038719
 C         -1.3141053514       -0.8327358241       -0.1274686332
 H         -1.3234356527       -1.5147950600        0.7089678327
 N         -3.3135410536       -1.9172677764       -0.9257176967
 S         -4.3331986376       -1.7282000511        0.3910405322
 O         -3.5623739034       -1.7549686639        1.6059810082
 O         -5.3486787107       -2.7449546054        0.2406178351
 C         -5.0519391349       -0.1129631072        0.1489557008
 C         -6.2659141492       -0.0086006428       -0.5016805733
 C         -6.7838936410        1.2512319084       -0.7556549968
 C         -6.0769225225        2.3793807865       -0.3673397760
 C         -4.8578542303        2.2578241950        0.2818146162
 C         -4.3371629387        1.0004358119        0.5434703786
 H         -3.3956087562        0.8699802803        1.0506227757
 H         -4.3064059307        3.1335086361        0.5848097953
 H         -6.4782361302        3.3598991474       -0.5693687590
 H         -7.7332236333        1.3496196777       -1.2570770119
 H         -6.7823679727       -0.9124308119       -0.7822686749
 H         -3.8689820850       -2.0688515736       -1.7567349095
 H         -3.0742932958       -0.1785591558       -2.9425469640
 H         -1.3129133572        1.5390675555       -3.1482277971
 H          0.4128993529        1.7608248785       -1.4019439957
 H          0.7315205309       -0.7002294919        1.3937645317
 C          0.4000139977        1.3537533473        1.8517347504
 C         -0.6843120372        2.3634106323        1.6390763574
 C         -0.8661269056        1.2757881043        2.6528370414
 H         -0.8302779090        1.5333100322        3.7007706384
 H         -1.5491016958        0.4682729569        2.4280274391
 H         -0.5034839929        3.3693125307        1.9855062057
 H         -1.2507347380        2.3151399734        0.7221234885
 H          1.2847843003        1.7014004452        2.3742901648
