  62
        -98.93746771
 C         -2.3985157665       -1.1324483398       -0.0054066757
 C         -3.3709994652       -0.6269743811        0.8949797156
 C         -4.3689615064        0.3202085381        0.3639187869
 C         -4.3161239011        0.6451669033       -0.9408599039
 C         -5.1916591577        1.6017613050       -1.7061643940
 C         -4.8544030026        3.0733560753       -1.4207073623
 C         -4.6527724582        3.4095377611        0.0542965308
 H         -3.8420665315        2.7975536114        0.4538026944
 H         -4.3315965382        4.4526867800        0.1154335170
 C         -5.8913579641        3.2497556438        0.9328784553
 H         -6.6946903729        3.8750980732        0.5372676406
 H         -5.6344217130        3.6285807325        1.9253505845
 C         -6.4190677373        1.8219401514        1.0945462923
 H         -6.9935417071        1.5120470485        0.2256055538
 H         -7.1139409899        1.8262033183        1.9393264534
 C         -5.3502677200        0.7817731042        1.4141904918
 H         -4.7484358263        1.1317049154        2.2606300567
 H         -5.8448040159       -0.1292017471        1.7720605654
 H         -3.9287542300        3.3168511969       -1.9481323803
 H         -5.6509362740        3.6950167548       -1.8332054979
 H         -5.0177533313        1.4042755314       -2.7663518553
 H         -6.2381013346        1.3983952301       -1.4993412266
 O         -3.3676683968        0.1312125084       -1.7730998828
 C         -2.3939623005       -0.7522567954       -1.3464716135
 O         -1.6142895548       -1.1044153502       -2.2566727768
 O         -3.4107991637       -0.9572855638        2.1106673108
 C         -1.3884933011       -2.1133602851        0.5652696901
 C         -0.0580770143       -1.4560833633        0.8478604237
 C          0.4492281354       -1.4040789160        2.1409103587
 C          1.6800988108       -0.8233714617        2.3920295001
 C          2.4263220988       -0.2785510626        1.3625714209
 C          1.9268707964       -0.3220789039        0.0673162962
 C          0.6967836893       -0.9137141866       -0.1825305706
 H          0.3120090219       -0.9424975759       -1.1914332449
 N          2.6627608168        0.2534978551       -0.9838640677
 S          4.2692451838       -0.1990209378       -1.1633352900
 O          4.5868624561        0.0590459054       -2.5508022726
 O          4.4971757438       -1.5462079122       -0.6931579233
 C          5.1559059854        0.9598607567       -0.1423568933
 C          4.9344891320        2.3082443516       -0.3436741210
 C          5.6272723398        3.2229118149        0.4332989559
 C          6.5269963247        2.7766484968        1.3900803598
 C          6.7404084342        1.4196665454        1.5775959850
 C          6.0495155196        0.4992380406        0.8046731715
 H          6.1770903686       -0.5652806056        0.9196890301
 H          7.4399226656        1.0748617755        2.3220500800
 H          7.0647049341        3.4911337299        1.9931471537
 H          5.4633173489        4.2789610113        0.2909030536
 H          4.2279274221        2.6130182109       -1.0977821217
 H          2.1815518894        0.2171703455       -1.8714301101
 H          3.3844899216        0.1770695463        1.5522421643
 H          2.0619380201       -0.7914614310        3.4010083778
 H         -0.1335625215       -1.8149011260        2.9524331315
 H         -1.8134614072       -2.4301334183        1.5272454629
 C         -1.1971577486       -3.3438541788       -0.3009902404
 C         -0.6538272803       -4.5936313801        0.3211454597
 C         -2.0902260107       -4.5297783506       -0.1021170351
 H         -2.4007354009       -5.0914360167       -0.9703536627
 H         -2.8456270374       -4.4623214752        0.6671975466
 H          0.0279119179       -5.2002259282       -0.2551341838
 H         -0.4354301359       -4.5716079548        1.3780226268
 H         -0.8954473405       -3.1147518217       -1.3150415827
