  62
        -98.94006564
 C         -2.5795160430       -1.1686272705        0.3061539824
 C         -2.5950614112       -0.3573421799       -0.8556128534
 C         -3.5248170541        0.7837319649       -0.8270654371
 C         -4.2745597974        1.0031691066        0.2673914700
 C         -5.2207196665        2.1544390130        0.4454785819
 C         -4.5204654838        3.3530071355        1.1010357334
 C         -3.1892390765        3.7243274955        0.4472844823
 H         -2.8017548818        4.5995380500        0.9735559719
 H         -2.4748172797        2.9127968635        0.6061601177
 C         -3.2822332140        4.0293690993       -1.0543790170
 H         -2.7033674586        4.9312336324       -1.2639808921
 H         -4.3175820163        4.2386906531       -1.3256428379
 C         -2.7336953825        2.9264361978       -1.9617583444
 H         -2.6459174732        3.3316593456       -2.9731882367
 H         -1.7292702203        2.6459407757       -1.6338984807
 C         -3.5832312434        1.6524785613       -2.0520127608
 H         -4.6160655015        1.9141331107       -2.2904991151
 H         -3.1831830974        1.0453623962       -2.8692584412
 H         -4.3313384135        3.1126762031        2.1500313485
 H         -5.1963424184        4.2092839460        1.0659013366
 H         -5.6225467394        2.4406390440       -0.5244793851
 H         -6.0411396059        1.8290998628        1.0874170412
 O         -4.2131786920        0.2180832556        1.3741621590
 C         -3.3542548986       -0.8677758494        1.4286441403
 O         -3.3651747443       -1.4733437160        2.5198216645
 H         -0.1671979819       -0.3700986189        1.3157690894
 C          0.3585368105       -0.9193114323        0.5422079655
 C         -0.2712255734       -2.0032640369       -0.0591074830
 C          0.4150041243       -2.7021651931       -1.0424198625
 C          1.6900002001       -2.3141205680       -1.4167426361
 C          2.3060766935       -1.2276650842       -0.8248231315
 C          1.6301379566       -0.5219562456        0.1622622649
 N          2.2471516748        0.5945455086        0.7603711954
 S          3.7406936240        0.3433442174        1.4906879004
 O          3.8637771906       -1.0092096031        1.9846234120
 O          3.8643287310        1.3988954773        2.4727314928
 C          4.9151771601        0.6247026691        0.1831227289
 C          5.8187021428       -0.3640797253       -0.1537022728
 C          6.7298876833       -0.1205671774       -1.1696961797
 C          6.7216339771        1.1007261595       -1.8260339669
 C          5.8090385610        2.0841268502       -1.4737125281
 C          4.8962548099        1.8477633577       -0.4582523340
 H          4.1734024221        2.5853575989       -0.1516655946
 H          5.8054861588        3.0323891021       -1.9866691146
 H          7.4305922414        1.2876656443       -2.6170709406
 H          7.4400361664       -0.8836287392       -1.4450749235
 H          5.7826736069       -1.3000065076        0.3805162651
 H          1.6388793211        1.1000648588        1.3885124926
 H          3.2945374779       -0.9173348728       -1.1218485431
 H          2.2088231602       -2.8631538886       -2.1876389117
 H         -0.0551426312       -3.5387771765       -1.5320506543
 C         -1.6544874018       -2.3676855315        0.4243348970
 H         -1.5827458173       -2.5636262385        1.5079344196
 C         -2.1994807239       -3.6410185974       -0.2059649192
 C         -3.6747247907       -3.8592687826       -0.3575687417
 C         -2.8185563592       -3.6590317569       -1.5700152773
 H         -2.6286316082       -4.5106769014       -2.2068370336
 H         -2.8834384999       -2.7221955135       -2.0995940422
 H         -4.0685777375       -4.8448019320       -0.1589341235
 H         -4.3339401766       -3.0581419131       -0.0554785494
 H         -1.6158605967       -4.5118032100        0.0771150841
 O         -1.8784582082       -0.5624251731       -1.8677257252
