  62
        -98.93679257
 C         -1.9645031050       -0.2023470114        0.8933613768
 C         -2.8566899684       -1.0233939240        0.1661493450
 C         -4.2574766213       -0.5600680256        0.0602637350
 C         -4.6090798401        0.6008561088        0.6415989628
 C         -5.9486265402        1.2884725970        0.6302692539
 C         -6.2515709460        1.9756950960       -0.7105753633
 C         -5.9266178762        1.1413039561       -1.9465706024
 H         -6.0908161149        1.7716472778       -2.8245784501
 H         -4.8676442037        0.8773596896       -1.9315956080
 C         -6.7646525352       -0.1237591291       -2.1155905191
 H         -7.8215127428        0.1492780021       -2.1548566987
 H         -6.4991306642       -0.5611118337       -3.0814262049
 C         -6.5781513315       -1.1983584975       -1.0419572084
 H         -7.1203010907       -0.9469302582       -0.1343782614
 H         -7.0259580893       -2.1203187718       -1.4242816474
 C         -5.1245986258       -1.5239753994       -0.7141561078
 H         -5.0969985317       -2.4621422962       -0.1470499686
 H         -4.5864681132       -1.7355045546       -1.6449868693
 H         -5.6586211006        2.8923218839       -0.7617593556
 H         -7.3063730722        2.2555555780       -0.7235375667
 H         -6.7335047955        0.5845188800        0.8902762453
 H         -5.9142043322        2.0511384757        1.4115849848
 O         -3.7124247444        1.3656351385        1.3293178121
 C         -2.3940038141        0.9926445151        1.4773789801
 O         -1.7076964896        1.7916311200        2.1481217752
 H          1.5554338620        1.2126333732        1.0242144297
 C          1.3724750855        0.7522512154        0.0648154685
 C          0.3463593953       -0.1697768456       -0.0822482461
 C          0.1312664807       -0.7380259736       -1.3342512651
 C          0.9217369453       -0.3804287892       -2.4105155783
 C          1.9549891502        0.5279281971       -2.2564884307
 C          2.1822757978        1.0959983953       -1.0096062925
 N          3.2346418921        2.0124869440       -0.8108575622
 S          4.4016718024        1.6208641327        0.3250502650
 O          3.8158701326        1.5805357872        1.6395713816
 O          5.4632810162        2.5802665196        0.1197642186
 C          4.9514479009       -0.0056056595       -0.1611006992
 C          6.0608186664       -0.1171868537       -0.9766150674
 C          6.4453715488       -1.3726483256       -1.4187353591
 C          5.7090412498       -2.4885576103       -1.0505497279
 C          4.5958559772       -2.3594301116       -0.2342645035
 C          4.2102382955       -1.1073906060        0.2180380327
 H          3.3509949825       -0.9735829353        0.8546474348
 H          4.0209934810       -3.2257370331        0.0509515752
 H          6.0042219579       -3.4653118994       -1.3999628778
 H          7.3128679728       -1.4763568257       -2.0503944235
 H          6.6037733667        0.7774069138       -1.2358153939
 H          3.6853869915        2.3027287772       -1.6677296001
 H          2.5773713588        0.8005074040       -3.0955723737
 H          0.7388638037       -0.8217251773       -3.3784071928
 H         -0.6688016785       -1.4519660041       -1.4543297889
 C         -0.4986435030       -0.5417992826        1.1127144366
 H         -0.1766105668        0.0892158448        1.9528257340
 C         -0.2689208454       -1.9920107096        1.4938850818
 C          0.9433749051       -2.3441122997        2.3001439526
 C         -0.4175884397       -2.4023096185        2.9261875963
 H         -0.8478936816       -3.3682980729        3.1432655281
 H         -0.6833503242       -1.6359844105        3.6405374662
 H          1.4512838402       -3.2731492107        2.0917264338
 H          1.5989766445       -1.5390184087        2.6003119068
 H         -0.5987769294       -2.6933942616        0.7393547785
 O         -2.5299862248       -2.1049507298       -0.3907686431
