  62
        -98.93595148
 C         -2.2542741748       -0.8399515345        0.0585851724
 C         -3.2712425921       -0.5239917361        0.9937270840
 C         -4.1830949741        0.5677444329        0.6230303679
 C         -3.9909066455        1.2118999613       -0.5424825472
 C         -4.8689305497        2.2989308422       -1.0941764779
 C         -6.1543542993        1.6886693884       -1.6884129785
 C         -7.4355846772        2.0786424519       -0.9511551445
 H         -7.6977470061        3.1056159922       -1.2140621282
 H         -8.2343520200        1.4306191572       -1.3181827690
 C         -7.3803729667        1.9858970397        0.5767647129
 H         -8.4109244337        2.0309543771        0.9353736240
 H         -6.8726597094        2.8634564990        0.9797326896
 C         -6.7143863091        0.7277357383        1.1488578939
 H         -6.7562400423       -0.0906297534        0.4298338348
 H         -7.2842396613        0.4104636749        2.0245597679
 C         -5.2587495917        0.9268494607        1.6108046793
 H         -5.1191498527        1.9594831189        1.9425320554
 H         -5.0740170534        0.2783568655        2.4723029821
 H         -6.2537753968        1.9938099191       -2.7311978495
 H         -6.0492012968        0.6017270550       -1.6883109366
 H         -5.1107707167        3.0103913061       -0.3077311045
 H         -4.2997201534        2.8137920463       -1.8683245194
 O         -2.9953711630        0.8898324166       -1.4073044429
 C         -2.1012561435       -0.1358181344       -1.1354071238
 O         -1.2475399670       -0.3097378662       -2.0255690570
 H          0.9028655277       -1.6629252536       -1.2358724697
 C          1.0648416247       -1.2465538591       -0.2543087685
 C          0.0638041576       -1.3236354905        0.7008107684
 C          0.2921906672       -0.7590667024        1.9531521230
 C          1.4903008176       -0.1316995375        2.2359928820
 C          2.4816728801       -0.0413053907        1.2738485676
 C          2.2630968681       -0.5979578237        0.0212391577
 N          3.2398866069       -0.4769476049       -0.9759867294
 S          4.8618325092       -0.6457415272       -0.6155291739
 O          5.4962003525       -0.9623387336       -1.8764429200
 O          5.0753063049       -1.5856953573        0.4607274784
 C          5.3623344252        0.9863228254       -0.1073953561
 C          6.0902694271        1.1519806104        1.0545623404
 C          6.4811086967        2.4293917601        1.4249979873
 C          6.1401635793        3.5128809145        0.6302194422
 C          5.4111650315        3.3294393706       -0.5353951678
 C          5.0185419888        2.0549818689       -0.9118402482
 H          4.4503023714        1.8727213928       -1.8089562592
 H          5.1462350897        4.1742909566       -1.1506951696
 H          6.4431052947        4.5064503805        0.9207763779
 H          7.0477487992        2.5741203359        2.3307610923
 H          6.3264161077        0.2813739200        1.6455603487
 H          2.9920231704       -0.8966934078       -1.8589197449
 H          3.4165926456        0.4506261413        1.4866158644
 H          1.6547404819        0.2975138748        3.2126744239
 H         -0.4889836822       -0.8121841747        2.6986011957
 C         -1.2783867074       -1.9503244136        0.4136967565
 H         -1.6581253241       -2.3806512704        1.3501713865
 C         -1.2372074555       -3.0382564630       -0.6383219006
 C         -0.6002531869       -4.3534636902       -0.3056019433
 C         -2.0874712267       -4.2591358724       -0.4627718988
 H         -2.5429621109       -4.6992302981       -1.3372477241
 H         -2.6999240718       -4.3186589360        0.4249168816
 H         -0.2009625798       -4.4746175876        0.6901216026
 H         -0.0323716410       -4.8613437424       -1.0703269131
 H         -1.1220969119       -2.6596088258       -1.6465679436
 O         -3.4084735378       -1.1286532519        2.0909091510
