  62
        -98.93845417
 C         -2.6012292299       -0.3371616958       -0.0789170147
 C         -2.2928824552       -1.3895448071       -0.9692056136
 C         -1.6246671029       -2.5673443151       -0.3920401602
 C         -1.3361010196       -2.5726360847        0.9213484904
 C         -0.5914257244       -3.6297503923        1.6893763369
 C          0.9092627155       -3.2931543339        1.7500838149
 C          1.7338043503       -3.8493762403        0.5910670705
 H          2.7502659720       -3.4660058931        0.7071905930
 H          1.7796931314       -4.9382456024        0.6665962954
 C          1.2135099068       -3.4661929586       -0.7968294458
 H          0.9014746101       -2.4193061024       -0.7802189595
 H          2.0400402935       -3.5522830456       -1.5057233882
 C          0.0589629430       -4.3602048963       -1.2740874306
 H          0.2833984196       -4.7352920232       -2.2749026085
 H         -0.0049903881       -5.2326759518       -0.6239393477
 C         -1.3159544185       -3.6806049477       -1.3568478966
 H         -2.0957072725       -4.4442726369       -1.2645811702
 H         -1.4387796263       -3.2285149759       -2.3462791797
 H          1.0108019115       -2.2042411756        1.7723096962
 H          1.3211511359       -3.6833813134        2.6833343353
 H         -0.7584930755       -4.6121717782        1.2565448126
 H         -0.9937355322       -3.6179400638        2.7044944794
 O         -1.6601340080       -1.5414480111        1.7482546639
 C         -2.2540757914       -0.3887652181        1.2715869585
 O         -2.4385780281        0.4921512776        2.1342149538
 O         -2.5474267549       -1.3377995055       -2.2055376772
 C         -3.1753024091        0.9562559084       -0.6362646269
 C         -2.1246724439        2.0231321651       -0.4456699461
 C         -2.3400355342        3.2406750004        0.1847224067
 C         -1.2809665460        4.0982970718        0.4361397843
 C          0.0119546086        3.7563819712        0.0819242789
 C          0.2279488404        2.5573840743       -0.5803679363
 C         -0.8340314548        1.7180080323       -0.8603484185
 H         -0.6490481286        0.7746495481       -1.3601035505
 N          1.5631088260        2.1420152362       -0.8734455638
 S          2.0930186162        1.1734865147        0.4204928265
 O          1.3449959819       -0.0641920043        0.4600883936
 O          2.0662838122        1.9845236154        1.6110297334
 C          3.7815135645        0.8480904851       -0.0522513961
 C          4.7003187069        1.8746364874        0.0522789945
 C          6.0084123145        1.6440615710       -0.3418450186
 C          6.3730248959        0.3986387676       -0.8322571394
 C          5.4392012548       -0.6213846134       -0.9312576215
 C          4.1281791260       -0.3964292373       -0.5405345428
 H          3.3683880097       -1.1601213236       -0.5950681270
 H          5.7248595717       -1.5891608976       -1.3109914622
 H          7.3920353355        0.2210479859       -1.1377142472
 H          6.7378970053        2.4341135041       -0.2657666078
 H          4.3705537080        2.8214264113        0.4461306457
 H          1.5744679613        1.5491907942       -1.6960515050
 H          0.8505732125        4.3875982337        0.3251096017
 H         -1.4636764730        5.0337846577        0.9428497064
 H         -3.3336800125        3.5070529989        0.5068041941
 H         -3.3095479214        0.7806495618       -1.7138019421
 C         -4.5140578708        1.2914770288       -0.0193020622
 C         -5.4896735540        2.1495937258       -0.7668347110
 C         -5.7544909469        0.6843416850       -0.6006426895
 H         -6.5384717629        0.3727151245        0.0728239061
 H         -5.6358259214        0.0407363600       -1.4600213909
 H         -6.0966478887        2.8457056743       -0.2082103818
 H         -5.1966027650        2.5034565373       -1.7435791977
 H         -4.4619211382        1.3899833050        1.0589120938
