  62
        -98.94729970
 C         -1.3170723663       -1.6747845733       -0.4767566209
 C         -1.1947645993       -0.3722527330       -1.0222246207
 C         -2.3688267411        0.5013949145       -0.8694357704
 C         -3.4613458000        0.0475082320       -0.2314749403
 C         -4.7081162717        0.8437604993        0.0227576601
 C         -4.6553987730        1.5551704992        1.3812210101
 C         -3.3653648647        2.3399367520        1.6205845000
 H         -3.4629681856        2.8404971117        2.5868457201
 H         -2.5257338031        1.6451443838        1.7080078397
 C         -3.0422569471        3.3783237928        0.5377178800
 H         -3.9391465877        3.6079685209       -0.0394903998
 H         -2.7234829890        4.3017378535        1.0262525201
 C         -1.9137810264        2.9625687554       -0.4079998302
 H         -1.5862124784        3.8493645562       -0.9580224302
 H         -1.0679188955        2.6016828572        0.1835777896
 C         -2.2702653843        1.8870328647       -1.4420092203
 H         -3.1938195750        2.1601641928       -1.9571911201
 H         -1.4604722043        1.8508695166       -2.1766115804
 H         -5.5103828945        2.2307025073        1.4497456804
 H         -4.7500280412        0.8054724089        2.1702027001
 H         -4.8350799635        1.5724630891       -0.7754638198
 H         -5.5579548702        0.1587517074        0.0160449202
 O         -3.5412591972       -1.2033279482        0.2898684296
 C         -2.4763660653       -2.0805689859        0.1914308393
 O         -2.6841504128       -3.1917764864        0.7219482592
 O         -0.1756256803        0.0625599493       -1.6220959809
 C         -0.2144786241       -2.7224810409       -0.5351733412
 C          0.7951019057       -2.4993894088        0.5648162886
 C          1.1062407180       -3.5013451382        1.4763382484
 C          2.0247501777       -3.2703156964        2.4854967983
 C          2.6343311551       -2.0351098850        2.6154337283
 C          2.3278385927       -1.0274261656        1.7078592585
 C          1.4304210330       -1.2720674574        0.6803175186
 H          1.1967783612       -0.4867374779       -0.0181059012
 N          2.9290175700        0.2366392057        1.7907933885
 S          2.0648280169        1.6085263839        1.3681625788
 O          2.7230987447        2.6824832352        2.0873439588
 O          0.6544451073        1.4578997707        1.6457872291
 C          2.3585515660        1.8539372747       -0.3712703112
 C          1.7236980136        2.9276517034       -0.9617246109
 C          1.9293852928        3.1757735540       -2.3082615710
 C          2.7707080344        2.3519857559       -3.0386882312
 C          3.4113228068        1.2863994572       -2.4280686915
 C          3.2083719877        1.0318716266       -1.0806802714
 H          3.6874333296        0.2021992576       -0.5874314416
 H          4.0648101581        0.6452039087       -2.9980142217
 H          2.9247969038        2.5403757863       -4.0896425112
 H          1.4293283209        4.0054684029       -2.7821937308
 H          1.0763465523        3.5438588619       -0.3584586607
 H          3.5070767798        0.3932495569        2.6029624084
 H          3.3373639448       -1.8490720636        3.4131389382
 H          2.2587762996       -4.0558372459        3.1880734982
 H          0.6106310401       -4.4582259893        1.4015333384
 H         -0.7090244219       -3.6851604020       -0.3461453612
 C          0.4766110758       -2.7938907892       -1.8837180314
 C          1.1758024485       -4.0591347577       -2.2761249516
 C         -0.0996750825       -3.6646855004       -2.9574154413
 H         -0.0574015934       -3.3179095902       -3.9787947713
 H         -0.9969071112       -4.2192508223       -2.7224708912
 H          2.0982669783       -3.9861341156       -2.8309912018
 H          1.1434416605       -4.8858702478       -1.5826824117
 H          0.9186392637       -1.8542674782       -2.1870445513
