  62
        -98.94762568
 C          1.8521947426        1.3132729958       -0.1044806032
 C          2.9388883211        0.5669784264        0.4149936777
 C          3.2253872187       -0.7081507321       -0.2488716177
 C          2.4664204994       -1.1046129295       -1.2861604117
 C          2.6151100385       -2.3892425672       -2.0539501611
 C          1.9029371052       -3.5743432509       -1.3871775444
 C          2.6005030253       -4.1310397555       -0.1453743814
 H          2.1362576242       -5.0938179312        0.0778379051
 H          3.6518899010       -4.3179797877       -0.3690765845
 C          2.4847890602       -3.2339045881        1.0950728059
 H          1.6626519348       -2.5266044104        0.9555433077
 H          2.2242783189       -3.8462144647        1.9623676690
 C          3.7612985298       -2.4698762933        1.4501773548
 H          4.5423530115       -3.1782745472        1.7370403301
 H          3.5481584859       -1.8354305152        2.3146168094
 C          4.3036103145       -1.5747223639        0.3282886798
 H          4.7602026645       -2.1842001585       -0.4513308502
 H          5.0671118769       -0.9186721993        0.7543607190
 H          1.8277895374       -4.3738703553       -2.1282428006
 H          0.8888712127       -3.2653484676       -1.1191597846
 H          2.1644209647       -2.2222938902       -3.0346538389
 H          3.6715864417       -2.6227984879       -2.1894137968
 O          1.4494678535       -0.3512566258       -1.7734734283
 C          1.0778496302        0.8360007349       -1.1626695802
 O          0.0677894989        1.3636917703       -1.6676788880
 O          3.6285450511        0.9452115812        1.4010643748
 C          1.4299722959        2.5668433893        0.6434762337
 C         -0.0493348993        2.4817374831        0.9286553317
 C         -0.9631952719        3.4899073049        0.6537403901
 C         -2.3122561947        3.3012202141        0.9053653773
 C         -2.7809477535        2.0989747507        1.4018768815
 C         -1.8721230357        1.0849281317        1.6820745481
 C         -0.5200460434        1.2966046446        1.4822243064
 H          0.1723223856        0.4984767565        1.7099149576
 N         -2.2852607379       -0.1848997336        2.1427205161
 S         -2.0636828947       -1.4549563495        1.0655207882
 O         -2.5410129940       -2.6308884406        1.7623323752
 O         -0.6962755521       -1.4905733410        0.6189163442
 C         -3.1789974756       -1.0774334794       -0.2748095255
 C         -2.8105644710       -0.1468081610       -1.2253806466
 C         -3.7271143412        0.1941594712       -2.2095101683
 C         -4.9831110793       -0.3918028692       -2.2253006985
 C         -5.3360097497       -1.3251672205       -1.2617421811
 C         -4.4288867123       -1.6679760877       -0.2729409376
 H         -4.6555421745       -2.3891754031        0.4958526215
 H         -6.3122760295       -1.7823917061       -1.2763943158
 H         -5.6894924807       -0.1198106907       -2.9937833005
 H         -3.4450838617        0.9206081631       -2.9547471660
 H         -1.8258894711        0.2951993033       -1.2013621589
 H         -3.2410146108       -0.2051245906        2.4732799601
 H         -3.8366292292        1.9398102352        1.5636184731
 H         -3.0109887709        4.0939168764        0.6856116195
 H         -0.6249536413        4.4167017912        0.2202621025
 H          1.9653119748        2.4991145133        1.6063498571
 C          1.8596281537        3.8772750161        0.0028023385
 C          3.0155331653        3.9272931032       -0.9500269628
 C          1.6243324775        4.1743535412       -1.4468059762
 H          1.3537952422        5.1824804239       -1.7250699485
 H          1.1453795197        3.4108842213       -2.0386273463
 H          3.6982013532        4.7613150051       -0.8847282865
 H          3.4915007503        2.9918267477       -1.2070741252
 H          1.7736598978        4.7127214939        0.6909488034
