  62
        -98.94312521
 C          0.8523370983        1.3761284044        0.0169637122
 C          1.8618341111        1.1531562542        0.9784287312
 C          2.6700776741       -0.0668357000        0.8151252200
 C          2.4074586763       -0.8999209965       -0.2090501100
 C          3.0298709202       -2.2278252351       -0.5891326068
 C          4.3886058804       -2.6449534230       -0.0306295825
 C          5.5632921490       -1.7760212644       -0.4765598011
 H          6.4594342701       -2.1279533429        0.0393238342
 H          5.7178146389       -1.9202084773       -1.5486745636
 C          5.4052192339       -0.2779114769       -0.2288240481
 H          4.5913219248        0.1127068922       -0.8428579873
 H          6.3235005674        0.2142623747       -0.5603319736
 C          5.1631690529        0.1221620750        1.2257690767
 H          5.2508746928        1.2102524168        1.2854866615
 H          5.9384495644       -0.3103076546        1.8611391610
 C          3.7862313944       -0.2600291072        1.8001835388
 H          3.7826165679       -1.2769020540        2.1871530308
 H          3.5725200031        0.4070798893        2.6407021819
 H          4.5733652832       -3.6603713755       -0.3922094124
 H          4.3499797511       -2.7005381235        1.0534581330
 H          3.0788385270       -2.2279859691       -1.6824117538
 H          2.2967155951       -2.9922176236       -0.3077657284
 O          1.4068187986       -0.6515912598       -1.1031321800
 C          0.6069396875        0.4758400932       -1.0181072167
 O         -0.2622870105        0.5595316925       -1.9045916108
 O          2.0790552681        1.9392538033        1.9420461170
 C         -0.0143038932        2.6141607993        0.1236503323
 C         -1.4783008128        2.2563760052        0.2019644804
 C         -2.4737113934        3.0797039762       -0.3124347261
 C         -3.8063079062        2.7240746470       -0.2028291364
 C         -4.1753661255        1.5381918134        0.4050137037
 C         -3.1876738125        0.7095994123        0.9253594218
 C         -1.8558554547        1.0802853272        0.8358121212
 H         -1.1034780419        0.4308423569        1.2588200205
 N         -3.5212353240       -0.5042843363        1.5478237945
 S         -2.5441412843       -1.8421551612        1.3772179541
 O         -3.3981095449       -2.9496093065        1.7593894637
 O         -1.3408009846       -1.6954480529        2.1601852301
 C         -2.1313836288       -2.0107305701       -0.3501864503
 C         -3.0052754172       -1.5907787695       -1.3316103544
 C         -2.6697886362       -1.8006656002       -2.6589499481
 C         -1.4824435810       -2.4360722509       -2.9821258545
 C         -0.6210175160       -2.8633056427       -1.9855089969
 C         -0.9467283506       -2.6466490094       -0.6574409417
 H         -0.2974602970       -2.9425298307        0.1525264058
 H          0.3077695376       -3.3498477437       -2.2373088081
 H         -1.2213469275       -2.5916793590       -4.0169947736
 H         -3.3334781476       -1.4598076063       -3.4371618099
 H         -3.9239625804       -1.0945816765       -1.0649321783
 H         -4.4992686552       -0.7524186921        1.5145683793
 H         -5.2140357576        1.2543529173        0.4804920396
 H         -4.5678550691        3.3740092305       -0.6057366374
 H         -2.2037138754        4.0015362946       -0.8010225589
 H          0.2721011360        3.0933075929        1.0728075582
 C          0.2978667101        3.5665221361       -1.0151479080
 C          0.2667836567        5.0501843095       -0.8043320780
 C          1.5777162800        4.3448887577       -0.9733214317
 H          2.1283455217        4.4842722546       -1.8914952740
 H          2.2055506319        4.2143484291       -0.1037689041
 H         -0.0815465948        5.6784467034       -1.6103625255
 H          0.0136831418        5.4119882239        0.1809203384
 H         -0.0194250615        3.1770530314       -1.9761078395
