  62
        -98.94610272
 C         -1.8197565595       -0.9640113794       -0.3187126795
 C         -3.1728608696       -1.3001091794       -0.0761042395
 C         -4.1595333695       -0.2791792893       -0.4453625594
 C         -3.7483402595        0.8807034207       -0.9898221093
 C         -4.6357582394        2.0105576308       -1.4374287692
 C         -5.0539400394        2.9635068807       -0.3089813191
 C         -6.0831105494        2.4005491306        0.6721070008
 H         -6.4474936794        3.2383424106        1.2699523309
 H         -6.9335958695        2.0031739707        0.1172912908
 C         -5.5334782695        1.3230731605        1.6172584307
 H         -4.4418489095        1.3653781405        1.6214655807
 H         -5.8657807795        1.5290220004        2.6372583107
 C         -5.9717509595       -0.1013474194        1.2770887706
 H         -5.4950239696       -0.7856459595        1.9836874105
 H         -7.0533562395       -0.1918217694        1.3996668706
 C         -5.6017939695       -0.5525701793       -0.1417972495
 H         -6.2444735595       -0.0617771792       -0.8723664194
 H         -5.7559219496       -1.6323899893       -0.2092733796
 H         -4.1598844194        3.2711807506        0.2380741409
 H         -5.4802661894        3.8537910707       -0.7769632391
 H         -5.5250682495        1.6075128308       -1.9229254093
 H         -4.0654135794        2.5795872008       -2.1746752692
 O         -2.4375357695        1.1586677007       -1.2214322693
 C         -1.4417417195        0.2525676306       -0.8852188294
 O         -0.2867103195        0.6422377006       -1.1385297093
 O         -3.5367262996       -2.3976519594        0.4251413704
 C         -0.7383215796       -1.9693172895        0.0303659904
 C          0.2830596104       -1.3488242396        0.9501663505
 C         -0.1536917196       -0.6779544697        2.0906396406
 C          0.7487027505       -0.0924408498        2.9562575406
 C          2.1081676705       -0.1581078298        2.7019516406
 C          2.5560384104       -0.8351377997        1.5751560006
 C          1.6456238704       -1.4352467696        0.7139618205
 H          2.0239367604       -1.9516277396       -0.1516453795
 N          3.9324132304       -0.9515771897        1.3092877806
 S          4.5620244805       -0.5209874196       -0.1801456994
 O          3.9508282205       -1.3052651495       -1.2208756095
 O          5.9925403605       -0.6705411597       -0.0244924094
 C          4.1682957505        1.2087727404       -0.3679953092
 C          5.1604900006        2.1386562303       -0.1203092391
 C          4.8588287506        3.4868874304       -0.2160746090
 C          3.5712938106        3.8825017504       -0.5474591990
 C          2.5868639906        2.9367491505       -0.7866397291
 C          2.8816413805        1.5846119505       -0.6981155292
 H          2.1184804905        0.8449626705       -0.8820209293
 H          1.5803195806        3.2281805905       -1.0420450191
 H          3.3330757006        4.9320485004       -0.6207217189
 H          5.6244955906        4.2231520703       -0.0313250889
 H          6.1472734305        1.7844572103        0.1309670208
 H          4.5216479305       -0.5785596798        2.0405921006
 H          2.8151107105        0.3055222301        3.3731879007
 H          0.3928215005        0.4261879101        3.8337187107
 H         -1.2160884296       -0.6201607697        2.2859260006
 H         -1.2517822096       -2.7744721195        0.5774539404
 C         -0.1403711296       -2.5510937894       -1.2336444996
 C          0.4153428604       -3.9426328194       -1.2366447597
 C         -0.8712221796       -3.6477284593       -1.9460615997
 H         -0.8787744496       -3.6460341392       -3.0258024197
 H         -1.7923994696       -3.9971465693       -1.5028666297
 H          1.2974541104       -4.1409776594       -1.8270996797
 H          0.3685293903       -4.5013134195       -0.3139879498
 H          0.3567009804       -1.8057175893       -1.8458752895
