  62
        -98.93284458
 C          1.8524672309       -0.2896236557       -1.0005970400
 C          3.2160427952       -0.1577052096       -1.3548546288
 C          4.1872821352       -0.5194836480       -0.3169747429
 C          3.7523382482       -0.9678282139        0.8748304117
 C          4.6185667749       -1.4039460258        2.0252412580
 C          5.1030208130       -0.2507802526        2.9146968607
 C          6.1800841241        0.6404951589        2.2949439799
 H          6.5799343934        1.2645870788        3.0966702466
 H          6.9977219855        0.0192311930        1.9280328648
 C          5.6760420650        1.5508893692        1.1663419503
 H          4.5862863287        1.6161778261        1.2110157837
 H          6.0622577974        2.5620438869        1.3139194866
 C          6.0893169599        1.1085926345       -0.2375596805
 H          5.6484311256        1.8014744184       -0.9590330695
 H          7.1755389594        1.1682918846       -0.3354160350
 C          5.6423674686       -0.3112180341       -0.6098470057
 H          6.2473194295       -1.0468487021       -0.0801699918
 H          5.7881150342       -0.4454841004       -1.6845557556
 H          4.2417619749        0.3600170037        3.1955808053
 H          5.5087959813       -0.6920364042        3.8279984356
 H          5.4778562277       -1.9590138593        1.6477344973
 H          4.0105340163       -2.0757520492        2.6348460202
 O          2.4326747145       -1.0991623182        1.1697175321
 C          1.4481844480       -0.7471402078        0.2539660290
 O          0.2880698523       -0.8886730577        0.6755078363
 O          3.6006240108        0.2453481227       -2.4861317608
 C          0.7969770005        0.0771694856       -2.0375036571
 C         -0.2152522175        0.9963194776       -1.3981692772
 C          0.3133575542        2.1338256227       -0.7813524321
 C         -0.4885189007        3.0422566003       -0.1223867762
 C         -1.8606061123        2.8615088575       -0.0773676111
 C         -2.4047127802        1.7548096458       -0.7066465224
 C         -1.5905904465        0.8319605240       -1.3574148185
 H         -2.0693779505       -0.0207079431       -1.8053684276
 N         -3.8073264212        1.5840631818       -0.6842424576
 S         -4.5126745981        1.1306434302        0.7671779356
 O         -5.9343780259        1.3324539376        0.5992256976
 O         -3.8824037420        1.8596347598        1.8368066224
 C         -4.1838671609       -0.6182578375        0.8995528121
 C         -5.2076636894       -1.5145784598        0.6576934867
 C         -4.9336058958       -2.8719846247        0.6934734404
 C         -3.6434778689       -3.3091089985        0.9566211399
 C         -2.6273192877       -2.3964427464        1.1927213607
 C         -2.8961332116       -1.0367600723        1.1670851320
 H         -2.1085046294       -0.3201223087        1.3363277533
 H         -1.6142629735       -2.7152297934        1.3804953545
 H         -3.4269184791       -4.3657420413        0.9755247924
 H         -5.7224050645       -3.5839729549        0.5107800293
 H         -6.1931176648       -1.1288120747        0.4518200370
 H         -4.1522731637        0.9788185065       -1.4169424004
 H         -2.5068807246        3.5488909363        0.4430343687
 H         -0.0446821700        3.9019020380        0.3572884191
 H          1.3839546484        2.2879604951       -0.8142166789
 H          1.3413606747        0.6818894044       -2.7833279793
 C          0.3982510886       -1.2017814407       -2.7598228289
 C         -0.6610252485       -2.1601992958       -2.3135766642
 C         -0.8246357056       -1.4066032327       -3.6024651844
 H         -0.7037874312       -1.9589461000       -4.5229809853
 H         -1.5512636358       -0.6144699334       -3.6747933346
 H         -0.4369098292       -3.2157801933       -2.3687725347
 H         -1.2522234317       -1.8993670217       -1.4502699818
 H          1.3033829121       -1.6631204033       -3.1502731756
