  62
        -98.93844551
 C         -2.3178715627       -1.2616482560        0.1973059687
 C         -2.3515781948       -0.0448499371       -0.5208625731
 C         -3.2806517098        0.9951427898       -0.0300174004
 C         -4.0225864025        0.7443417763        1.0641448324
 C         -5.0516866079        1.6266931178        1.7189821075
 C         -6.3781676418        1.6681664772        0.9427998691
 C         -6.2338513488        1.8103281822       -0.5700179345
 H         -5.6311020397        0.9843433127       -0.9516717718
 H         -7.2303263653        1.7151931287       -1.0092364360
 C         -5.6389438605        3.1337270593       -1.0451086706
 H         -5.6750134636        3.1325628317       -2.1375212855
 H         -6.2664379459        3.9556412985       -0.6933988504
 C         -4.1952790059        3.4097172418       -0.6192944114
 H         -4.1452680706        3.7306859717        0.4177121302
 H         -3.8327945124        4.2491667549       -1.2201546372
 C         -3.2269709960        2.2555823448       -0.8598508474
 H         -2.2015801703        2.6325515244       -0.7532336425
 H         -3.3068146441        1.9337234180       -1.9046447422
 H         -6.9797661624        2.4909801309        1.3323804198
 H         -6.9128703007        0.7358173946        1.1393643816
 H         -5.2408630504        1.2044407507        2.7083738252
 H         -4.6510145385        2.6265022833        1.8576910753
 O         -3.9506920305       -0.4428176994        1.7310258181
 C         -3.1061047233       -1.4572970339        1.3342879280
 O         -3.1455494388       -2.4728984184        2.0571358616
 O         -1.6531220175        0.1879886033       -1.5443563887
 C         -1.3847400739       -2.4030232527       -0.1805357550
 C          0.0219485001       -1.9923166790        0.1814659600
 C          0.5124447935       -2.2671437786        1.4546098353
 C          1.7685846204       -1.8326861629        1.8353341685
 C          2.5562646517       -1.1040931978        0.9607922917
 C          2.0679813761       -0.8098986098       -0.3045909470
 C          0.8179985414       -1.2706337328       -0.6948145364
 H          0.4427408566       -1.0189536198       -1.6741067436
 N          2.8503618825       -0.0466747809       -1.1913791797
 S          3.4538223161        1.4129163147       -0.6162966842
 O          2.6230760953        1.9613671658        0.4314012873
 O          3.6410567492        2.2382717414       -1.7899065930
 C          5.0523585694        0.9745638938        0.0370709293
 C          5.9415211318        0.3267227318       -0.7981666262
 C          7.1915484304       -0.0159826371       -0.3083006078
 C          7.5311868966        0.2962320148        0.9997811742
 C          6.6289573893        0.9503167579        1.8245686686
 C          5.3761022506        1.2946075884        1.3409459663
 H          4.6396454549        1.7982424781        1.9469532812
 H          6.8943804532        1.1925491596        2.8411468287
 H          8.5046443596        0.0281720284        1.3790077957
 H          7.8958754979       -0.5246341606       -0.9466128778
 H          5.6396763656        0.1064444087       -1.8083604314
 H          2.4028107211        0.0950947470       -2.0864358994
 H          3.5308020995       -0.7502117272        1.2554114746
 H          2.1370683661       -2.0577485871        2.8246552801
 H         -0.1137291741       -2.8101121100        2.1488319843
 H         -1.6683877547       -3.2437354859        0.4660836917
 C         -1.5418619787       -2.8298354144       -1.6250922268
 C         -0.9712363535       -4.1449211315       -2.0607198641
 C         -2.4556598184       -3.9702922243       -1.9541464518
 H         -3.0368737010       -3.9178745270       -2.8626249863
 H         -2.9701178000       -4.4512426871       -1.1349175932
 H         -0.5309541186       -4.2162574401       -3.0434156640
 H         -0.4770019074       -4.7447536415       -1.3115851109
 H         -1.5117947771       -2.0064342330       -2.3267522888
