  62
        -98.94788455
 C          1.0740085296        1.1843867304        0.4955343705
 C          1.4531637799        0.4671724205       -0.6643946595
 C          2.2751681800       -0.7274853095       -0.4288601193
 C          2.5129322697       -1.1381369095        0.8297648407
 C          3.3074134697       -2.3522598295        1.2292946008
 C          4.8211088297       -2.1055474993        1.2971785612
 C          5.5148131200       -1.9424257792       -0.0561872886
 H          6.5897258099       -1.9909997491        0.1287061517
 H          5.2574761202       -2.7848344792       -0.6988580487
 C          5.1971643701       -0.6245979192       -0.7772667586
 H          4.7715760598        0.0865803207       -0.0653157686
 H          6.1230782901       -0.1834987391       -1.1530978883
 C          4.2462805804       -0.7652073992       -1.9663797388
 H          4.0596563304        0.2309530908       -2.3750414088
 H          4.7213944306       -1.3654628391       -2.7452457087
 C          2.8921920403       -1.3985673294       -1.6193785892
 H          2.2173891506       -1.2562858994       -2.4666059794
 H          3.0192211004       -2.4661988894       -1.4410088492
 H          5.0026799694       -1.2191042394        1.9095329413
 H          5.2678152896       -2.9602669893        1.8104910713
 H          2.9595549595       -2.6392831896        2.2241891507
 H          3.1039547099       -3.1732128595        0.5409378007
 O          2.0259284894       -0.4829877096        1.9193309406
 C          1.3494180293        0.7196626203        1.7812983405
 O          1.0445879690        1.2648172102        2.8624601905
 O          1.1406588302        0.8087461005       -1.8331448095
 C          0.3437779795        2.5090279003        0.3647217903
 C         -0.9938204103        2.3056497602       -0.3041299300
 C         -1.3868250201        2.9735349703       -1.4561067401
 C         -2.6377949899        2.7458205702       -2.0028329504
 C         -3.5190430500        1.8599448901       -1.4122792607
 C         -3.1400607002        1.1948139800       -0.2505054606
 C         -1.8834768904        1.4171475401        0.2893547297
 H         -1.5970155606        0.9044988901        1.1965674998
 N         -4.0368743203        0.3272825799        0.3924997891
 S         -3.5242028004       -1.0832831401        1.1164870691
 O         -4.7451696204       -1.8332473702        1.3215547388
 O         -2.7518805107       -0.7975422301        2.2986543994
 C         -2.5259268700       -1.9138687799       -0.1038410006
 C         -1.1676658000       -2.0527397398        0.0866933397
 C         -0.4226714797       -2.7178317097       -0.8741434701
 C         -1.0418969294       -3.2132270297       -2.0101674003
 C         -2.4081772994       -3.0597541298       -2.1910993007
 C         -3.1596006897       -2.4078487199       -1.2281519608
 H         -4.2271532697       -2.2912419500       -1.3199851511
 H         -2.8870772091       -3.4486254498       -3.0751608408
 H         -0.4539287992       -3.7243080596       -2.7559285602
 H          0.6383580502       -2.8352374496       -0.7295036599
 H         -0.7158643503       -1.6464675498        0.9791547398
 H         -4.9146509002        0.1961684199       -0.0884595811
 H         -4.4964287399        1.6883631000       -1.8363245110
 H         -2.9297934897        3.2664088702       -2.9020425005
 H         -0.7140681000        3.6690427103       -1.9290831699
 H          0.1518916892        2.8498051302        1.3929593403
 C          1.2292256196        3.5239350804       -0.3283438594
 C          1.0304885894        4.9878871704       -0.0801205993
 C          2.2284934193        4.2874681705        0.4855812009
 H          3.1979371094        4.4905695006        0.0556024312
 H          2.2556422490        4.0931389704        1.5484129209
 H          1.1801348795        5.6760938405       -0.8981476493
 H          0.2446272792        5.2764118003        0.6015519405
 H          1.5328465799        3.2078889005       -1.3194467093
