  62
        -98.93860528
 C          0.0381852840        1.8115650733       -1.0770574114
 C          1.1677553164        2.3273198113       -0.3927553059
 C          2.4307154035        1.5961735778       -0.5519866222
 C          2.4548441159        0.4995203168       -1.3293466756
 C          3.6279256208       -0.4235893738       -1.5029366881
 C          3.7334345294       -1.3643591811       -0.2846575036
 C          4.9849663854       -1.1550856458        0.5689698520
 H          4.8365346784       -1.7080541037        1.4992816345
 H          5.8437728450       -1.5939195883        0.0556415701
 C          5.3314395198        0.2991388448        0.9030500595
 H          6.0568109942        0.2737360744        1.7191024905
 H          5.8357204835        0.7602525667        0.0521938230
 C          4.1530888294        1.1903097945        1.3180240613
 H          4.4824209232        1.8339728295        2.1366442200
 H          3.3279074839        0.5866230104        1.7003277853
 C          3.6259597907        2.1098817208        0.1995702579
 H          3.2953233288        3.0523636041        0.6459633635
 H          4.4339877010        2.3404296443       -0.5004817440
 H          3.7258796703       -2.4031025073       -0.6222402252
 H          2.8447709171       -1.2278673674        0.3378493902
 H          4.5410573513        0.1559027738       -1.6195608970
 H          3.4599783793       -0.9990461241       -2.4138821211
 O          1.3651831522        0.0539517674       -2.0006386529
 C          0.1190496232        0.6608439350       -1.8614427513
 O         -0.7830492271        0.0821463487       -2.4916196766
 O          1.1143298145        3.3623519212        0.3275319592
 C         -1.2886849082        2.4867241033       -0.7711904944
 C         -1.7839867061        1.9636994718        0.5553833357
 C         -2.3008534954        2.8034020229        1.5339791807
 C         -2.6817488791        2.2939253943        2.7637182789
 C         -2.5231279411        0.9500895196        3.0521971957
 C         -2.0053058635        0.1032939536        2.0786674434
 C         -1.6764176452        0.6085316909        0.8316532636
 H         -1.2872934058       -0.0580352614        0.0779076582
 N         -1.8012667095       -1.2631946227        2.3190929339
 S         -0.4700458674       -2.0125418476        1.6253623586
 O         -0.2463697176       -3.1799275928        2.4555194661
 O          0.6543711913       -1.1119190831        1.5080794832
 C         -1.0250344418       -2.5559720103        0.0252425027
 C         -2.3604446405       -2.8448032216       -0.1717005553
 C         -2.7677287279       -3.3010146472       -1.4144756715
 C         -1.8392351976       -3.4667432506       -2.4301559652
 C         -0.5015072255       -3.1808520935       -2.2130508769
 C         -0.0877085480       -2.7229261491       -0.9732099121
 H          0.9413282219       -2.4695929390       -0.7727103119
 H          0.2201294872       -3.2979770928       -3.0054085443
 H         -2.1599675906       -3.8137414205       -3.3997291301
 H         -3.8091844089       -3.5189343209       -1.5891371843
 H         -3.0577017230       -2.6954425086        0.6360998712
 H         -1.9554671663       -1.5658689025        3.2698251447
 H         -2.7851833030        0.5600903563        4.0238420501
 H         -3.0819162536        2.9552919203        3.5171189235
 H         -2.3782936392        3.8626323200        1.3379701268
 H         -1.0529996247        3.5546104102       -0.6350524082
 C         -2.3240395217        2.3798049223       -1.8780641737
 C         -3.4890962376        1.4429906561       -1.8144339359
 C         -3.7089941337        2.9170413674       -1.6674428128
 H         -4.1810094688        3.4538880977       -2.4761475101
 H         -3.9564746838        3.2887438094       -0.6847857920
 H         -3.7873691194        0.9555818974       -2.7293392360
 H         -3.5901688257        0.8203515698       -0.9391378234
 H         -1.8845789921        2.5330916862       -2.8576716340
