  62
        -98.93247262
 C         -2.3600243114       -0.7277824276        0.1525200438
 C         -2.6723189106        0.6567940658        0.1580715663
 C         -3.9578573232        1.0566114771       -0.4359049147
 C         -4.7630999094        0.1121595849       -0.9509046655
 C         -6.0944960934        0.2797092154       -1.6396016238
 C         -7.0856178083        1.2813761386       -1.0324712661
 C         -7.0373072197        1.3936971784        0.4982740400
 H         -8.0478748294        1.2802811318        0.8949637687
 H         -6.4314257343        0.5868354139        0.9140563016
 C         -6.4921335943        2.7399581518        0.9808707045
 H         -6.9286468624        3.5339603207        0.3710897470
 H         -6.8179954311        2.9023329253        2.0111065778
 C         -4.9700039277        2.8758250210        0.9622621255
 H         -4.5307989063        2.2417354174        1.7373875459
 H         -4.7207670603        3.9089128088        1.2167944708
 C         -4.2889053303        2.5199978535       -0.3694407815
 H         -4.8926209106        2.8343341901       -1.2173923964
 H         -3.3316258733        3.0470998590       -0.4084029622
 H         -6.9200247038        2.2665992470       -1.4659063327
 H         -8.0827951650        0.9650953778       -1.3431853530
 H         -5.9046763934        0.5511245133       -2.6821301418
 H         -6.5386626705       -0.7185772167       -1.6431868012
 O         -4.4262809369       -1.2063610522       -0.9372441404
 C         -3.2348360561       -1.6644030419       -0.3964165585
 O         -3.1039845128       -2.9018310639       -0.4755282321
 H          1.2836325018        0.2302746694        0.4927121126
 C          1.1854142304       -0.5601500921       -0.2374193645
 C          0.0423230315       -1.3453718283       -0.2636181902
 C         -0.0645532937       -2.3419018875       -1.2285794818
 C          0.9563702784       -2.5443182985       -2.1388643063
 C          2.1073909202       -1.7774390934       -2.0928247406
 C          2.2205229163       -0.7751851348       -1.1367715961
 N          3.3667697852        0.0324873272       -1.0727827313
 S          3.9059766111        0.5270063753        0.4496796599
 O          3.8000712205       -0.5659915670        1.3895310321
 O          3.2290019348        1.7472825520        0.8105978234
 C          5.6189445208        0.8710662787        0.0928209327
 C          5.9550720912        2.0994938774       -0.4441050253
 C          7.2822531066        2.3558624466       -0.7499024556
 C          8.2452481138        1.3852177060       -0.5164111390
 C          7.8929358210        0.1578166991        0.0245551474
 C          6.5673246600       -0.1056489311        0.3318619880
 H          6.2481831102       -1.0411134032        0.7626155101
 H          8.6442332915       -0.5931965551        0.2082819290
 H          9.2774385901        1.5879201687       -0.7546046243
 H          7.5603550898        3.3101063117       -1.1673879148
 H          5.1736738540        2.8252998072       -0.5988167172
 H          4.1232750477       -0.3094313656       -1.6494376922
 H          2.9092381732       -1.9483765898       -2.7950931796
 H          0.8608545756       -3.3193845020       -2.8844034876
 H         -0.9552935308       -2.9501966589       -1.2581003972
 C         -1.0337404702       -1.1274179097        0.7738469329
 H         -0.7285272611       -0.2627197167        1.3800154823
 C         -1.1220417647       -2.3391635304        1.6832146592
 C          0.0060111951       -2.6062628979        2.6328308214
 C         -1.3210140510       -2.1445999138        3.1546174109
 H         -1.9396112133       -2.8504511219        3.6883800473
 H         -1.3997192070       -1.1306184318        3.5196468087
 H          0.8318585002       -1.9090066224        2.6385508207
 H          0.2984948834       -3.6302202991        2.8081106017
 H         -1.6044061163       -3.1901836718        1.2205028756
 O         -1.9020967745        1.5304425064        0.6411732682
