  62
        -98.93229260
 C         -2.7978609480       -0.2054735888        0.5923919615
 C         -2.3201887209        0.2343964239       -0.6669942672
 C         -2.1375769882        1.6904951917       -0.8259873346
 C         -2.4855588388        2.5077043474        0.1840043760
 C         -2.3009675534        3.9980733921        0.2297301247
 C         -0.8534150313        4.3902037153        0.6034369018
 C          0.2248578659        3.3930730207        0.1726137809
 H          1.1483475265        3.6517214270        0.6982162316
 H         -0.0573883343        2.3906049271        0.5030266409
 C          0.5369624632        3.3594772238       -1.3254462540
 H          1.1391425835        4.2364019709       -1.5780020536
 H          1.1367592994        2.4666039083       -1.5227904737
 C         -0.6722627472        3.3482186890       -2.2574077124
 H         -0.2929000033        3.3631829678       -3.2836447964
 H         -1.2506347736        4.2594239162       -2.1231055667
 C         -1.5648561612        2.1108342744       -2.1550932976
 H         -2.4023315918        2.2277196253       -2.8545375653
 H         -0.9941393741        1.2422493003       -2.5029052678
 H         -0.6304516880        5.3707466637        0.1817393315
 H         -0.8012240453        4.4708383243        1.6911403575
 H         -2.5956291582        4.4225032445       -0.7265152217
 H         -2.9779527937        4.3852970117        0.9934497013
 O         -2.9937065814        2.0477181685        1.3601215562
 C         -3.1166077543        0.6929811128        1.6117468333
 O         -3.5072198153        0.4174497422        2.7641615740
 H         -0.4026382108       -0.8414312250        1.4133046046
 C         -0.3862257334       -1.7466804154        0.8157230746
 C         -1.5910720526       -2.3504120047        0.4746967154
 C         -1.5522211679       -3.5059996098       -0.2925808475
 C         -0.3407328959       -4.0224490136       -0.7214115399
 C          0.8526319092       -3.4008325932       -0.4040503179
 C          0.8242389802       -2.2463523629        0.3672135617
 N          2.0372917381       -1.5836388435        0.6833206172
 S          2.7891780231       -0.8569652776       -0.6512426488
 O          1.9670699406        0.2079297066       -1.1806536477
 O          3.1703408723       -1.8928454412       -1.5763843333
 C          4.2388008931       -0.1728930848        0.1278897175
 C          4.2736849274        1.1736997624        0.4337943906
 C          5.3942556260        1.6883411643        1.0670341365
 C          6.4522776465        0.8503908376        1.3849102911
 C          6.4015401638       -0.5001012624        1.0721659404
 C          5.2849190182       -1.0202838042        0.4377606075
 H          5.2034551974       -2.0599508531        0.1678816536
 H          7.2271926472       -1.1473756335        1.3200235428
 H          7.3227909863        1.2533765298        1.8779569364
 H          5.4367860296        2.7381548147        1.3090070553
 H          3.4300899301        1.7884562545        0.1613111231
 H          1.8731912470       -0.8515995424        1.3644671950
 H          1.7967007664       -3.7730511555       -0.7662653902
 H         -0.3280257459       -4.9167312798       -1.3262149590
 H         -2.4709091024       -3.9881107191       -0.5839947664
 C         -2.8632245604       -1.6833187216        0.9432992678
 H         -2.8712874794       -1.7105379262        2.0463128298
 C         -4.1285813882       -2.3932005108        0.4869069344
 C         -5.3904784502       -1.6294350259        0.2202446234
 C         -4.6498483503       -2.2711778497       -0.9122842941
 H         -5.0829252957       -3.1455632585       -1.3759920145
 H         -4.0987434247       -1.6419125919       -1.5929098381
 H         -6.3270537869       -2.0630660697        0.5374450053
 H         -5.3542322795       -0.5534690934        0.3125045696
 H         -4.2490742664       -3.3578999691        0.9701250139
 O         -2.0343117287       -0.5428161055       -1.6145178271
