  62
        -98.93045056
 C         -2.4300790606       -1.2155978379       -0.1380082675
 C         -2.0981261273        0.1420484611        0.0973109669
 C         -3.1938973718        0.9897327599        0.5998605120
 C         -4.4075491793        0.4523434678        0.8142443465
 C         -5.6209846183        1.2141411254        1.2611451065
 C         -6.4270016902        1.7284854700        0.0600732009
 C         -5.5804784253        2.4503454440       -0.9883575031
 H         -4.8941294737        1.7350711094       -1.4474646563
 H         -6.2577608898        2.7948367344       -1.7727612943
 C         -4.7785696844        3.6416843583       -0.4460747528
 H         -4.8842851581        4.4798607298       -1.1379753975
 H         -5.1888299303        3.9592836942        0.5131345189
 C         -3.2790972844        3.3792047344       -0.2918885897
 H         -2.8781445140        2.9727044510       -1.2241133277
 H         -2.7812849202        4.3363155727       -0.1137492737
 C         -2.8806370635        2.4378856718        0.8519975747
 H         -1.7932496897        2.4939446354        0.9650547714
 H         -3.3400760740        2.7753815983        1.7835464125
 H         -7.2040807695        2.4006270354        0.4283218641
 H         -6.9131814283        0.8765766541       -0.4206421073
 H         -6.2497831155        0.5438369826        1.8493668424
 H         -5.3090124538        2.0477105209        1.8872292316
 O         -4.6813940849       -0.8594111062        0.5971641351
 C         -3.7089796134       -1.7176028762        0.1158971309
 O         -4.0994730261       -2.8927316535       -0.0412512003
 H          1.0837485996       -0.8803466319       -0.8443938913
 C          0.9673931283       -1.5188928906        0.0098533446
 C         -0.2001184387       -2.2354583967        0.2244053371
 C         -0.2968237346       -3.0007017632        1.3873346136
 C          0.7343340627       -3.0440833883        2.3043855382
 C          1.8943778168       -2.3234823678        2.0841786680
 C          2.0080757896       -1.5591929642        0.9296951611
 N          3.2050821653       -0.8651667122        0.6653637046
 S          3.2049273414        0.6955803711        0.0200703611
 O          2.6017238305        1.6263018078        0.9487690923
 O          2.6816059938        0.6660770330       -1.3198540908
 C          4.9678252625        0.9671605342       -0.0437524982
 C          5.5762595823        1.7794813123        0.8934629400
 C          6.9501180817        1.9568204331        0.8376757777
 C          7.6886166825        1.3199044712       -0.1478360029
 C          7.0638094115        0.5080317183       -1.0830931357
 C          5.6908388901        0.3284897490       -1.0333170686
 H          5.1611353275       -0.2849577864       -1.7432609866
 H          7.6408166351        0.0162627494       -1.8495874504
 H          8.7573673286        1.4589755033       -0.1891389408
 H          7.4377781618        2.5899261890        1.5613925172
 H          4.9606114072        2.2598237703        1.6370373444
 H          3.8263403127       -0.8806331171        1.4644892266
 H          2.7030470087       -2.3517287767        2.7991648622
 H          0.6337620247       -3.6396610453        3.1992795009
 H         -1.2072989652       -3.5558046888        1.5697792194
 C         -1.4143876881       -2.2216872061       -0.6707717735
 H         -1.9054226140       -3.1984011275       -0.5328231545
 C         -1.2597153594       -2.0766928071       -2.1793141246
 C         -0.5542151194       -0.9695074324       -2.9007124979
 C         -0.0011596890       -2.3631290843       -2.9407220909
 H         -0.0812513002       -2.9165175579       -3.8647255253
 H          0.8957828776       -2.5710172803       -2.3792445799
 H         -1.0251344897       -0.5830131349       -3.7944646920
 H         -0.0483632896       -0.2068302769       -2.3305434780
 H         -2.1807773022       -2.4071323296       -2.6563187226
 O         -0.9590135732        0.6380906113       -0.0945032250
