  62
        -98.93455900
 C          2.3217559396       -0.2910281205       -0.2521238883
 C          3.4913894929       -0.7648685537       -0.8888576291
 C          4.7162301691        0.0274510071       -0.6843272236
 C          4.6532967933        1.1417469579        0.0654181280
 C          5.7866721077        2.0557425617        0.4414082443
 C          6.3819431272        1.6506578244        1.8006705981
 C          7.4806517330        0.5906332050        1.7324895430
 H          8.3801027241        1.0337836786        1.2999458744
 H          7.7183248538        0.3031361601        2.7592625711
 C          7.1268474157       -0.6700177115        0.9390914321
 H          7.7968888767       -1.4686064097        1.2635316852
 H          6.1098214354       -0.9842186105        1.1809720686
 C          7.2706963312       -0.4877540572       -0.5791665253
 H          7.8137238635        0.4362358197       -0.7768401404
 H          7.8806327248       -1.2979735770       -0.9839657883
 C          5.9525540986       -0.4905779255       -1.3677480118
 H          6.0939025258        0.0648817333       -2.3009078671
 H          5.7005703258       -1.5171440479       -1.6518152190
 H          6.7985883459        2.5390439924        2.2795931789
 H          5.5633734707        1.2934481998        2.4308707633
 H          6.5470091968        2.0667602418       -0.3337420407
 H          5.3609019759        3.0570359329        0.5328003016
 O          3.5003122891        1.5706729863        0.6499929590
 C          2.3121912291        0.8738337630        0.5141867328
 O          1.3445296887        1.3849670437        1.1089769444
 O          3.5131905282       -1.8074926188       -1.5983140963
 C          1.0301546868       -1.0712139569       -0.4110629737
 C         -0.0366588631       -0.1985294549       -1.0241791760
 C          0.2480855696        0.4758782757       -2.2096770833
 C         -0.6997062097        1.2808617368       -2.8098497040
 C         -1.9575928058        1.4209978412       -2.2495659456
 C         -2.2517753470        0.7538682574       -1.0670709565
 C         -1.2944722081       -0.0509111419       -0.4635116368
 H         -1.5525265784       -0.5555175578        0.4521141676
 N         -3.5091462179        0.8968403607       -0.4595799068
 S         -4.1724961362       -0.4211788311        0.3582724053
 O         -3.6330911426       -0.4714729570        1.6937092838
 O         -4.0272168659       -1.6208512959       -0.4353267526
 C         -5.8848876188        0.0742098966        0.4216806576
 C         -6.7687499072       -0.4118731667       -0.5232642696
 C         -8.0904119002        0.0037097657       -0.4813364337
 C         -8.5029731456        0.8953070764        0.4974192378
 C         -7.6045151763        1.3739003074        1.4396669834
 C         -6.2819542950        0.9616385581        1.4042005781
 H         -5.5501231087        1.2992841032        2.1196120099
 H         -7.9293413235        2.0647857730        2.2008723854
 H         -9.5319173274        1.2171966313        0.5282061579
 H         -8.7920759617       -0.3690879615       -1.2100124644
 H         -6.4049295280       -1.1101412670       -1.2597880590
 H         -4.1873264966        1.3505558096       -1.0559985187
 H         -2.7001799316        2.0482488148       -2.7188957255
 H         -0.4615743970        1.7989417900       -3.7267917602
 H          1.2286836805        0.3598457384       -2.6516473435
 H          1.2599288130       -1.8780698795       -1.1236071064
 C          0.6206167579       -1.6924726482        0.9072700163
 C         -0.2366424313       -2.9214624568        0.9255334011
 C          1.2085398224       -3.0097352935        1.3115532368
 H          1.4570489151       -3.1666947743        2.3504253040
 H          1.8939410061       -3.4790733598        0.6209543588
 H         -0.9885951957       -3.0115368017        1.6956316128
 H         -0.5388713286       -3.3333444980       -0.0257958638
 H          0.4647978833       -0.9536082727        1.6864990063
