  62
        -98.94375295
 C         -1.4724590267       -1.2613107773        0.7096276746
 C         -2.5208855647       -1.1775685285       -0.2383975587
 C         -3.4178210477       -0.0182380596       -0.0973073883
 C         -3.1543966877        0.9174365239        0.8323806956
 C         -3.9529742478        2.1718460376        1.0381682235
 C         -3.4311691822        3.3297173210        0.1752958525
 C         -3.2237706947        2.9651278817       -1.2943188848
 H         -2.8726705038        3.8631798635       -1.8073031699
 H         -2.4300706014        2.2183889435       -1.3723504573
 C         -4.4758243066        2.4263887769       -1.9988753367
 H         -4.5679296186        2.9107768086       -2.9732654719
 H         -5.3665968890        2.6831523502       -1.4243756473
 C         -4.4506431924        0.9176781421       -2.2484684995
 H         -5.2673475146        0.6714440813       -2.9323415220
 H         -3.5162733566        0.6426518613       -2.7443247587
 C         -4.6158651604        0.0360338676       -1.0044567114
 H         -5.5006005992        0.3522067736       -0.4474664014
 H         -4.7758822316       -0.9900385703       -1.3484930987
 H         -2.4754655228        3.6672317023        0.5820412378
 H         -4.1392421582        4.1572634860        0.2473491845
 H         -4.9956747323        1.9717749709        0.7977072526
 H         -3.8822818354        2.4539518052        2.0899754763
 O         -2.0935689613        0.8406853233        1.6756866793
 C         -1.2431154842       -0.2493909595        1.6477451714
 O         -0.3309182421       -0.2109836214        2.4966530474
 H          1.9667952959       -1.4767105967        1.3046076069
 C          1.8335830392       -1.6218991632        0.2406575454
 C          0.6269042147       -2.1221065713       -0.2293135415
 C          0.4542617920       -2.2661975955       -1.6017078130
 C          1.4708994256       -1.9234698586       -2.4756121539
 C          2.6751395674       -1.4293481732       -2.0035164700
 C          2.8510695328       -1.2727201677       -0.6358574333
 N          4.0674161060       -0.7343813197       -0.1524986862
 S          4.2821053400        0.9005343237       -0.4535040557
 O          4.3024509443        1.1072851463       -1.8784778555
 O          5.4739880328        1.2803445137        0.2692097545
 C          2.8515174725        1.6848373292        0.2654480409
 C          1.6745360061        1.7156209029       -0.4548588464
 C          0.5447305102        2.2540759210        0.1379019139
 C          0.6066101837        2.7425960279        1.4328725860
 C          1.7958051112        2.7028457706        2.1428788163
 C          2.9294441987        2.1641441726        1.5575547531
 H          3.8743725087        2.1133026246        2.0749247592
 H          1.8368832312        3.0785455178        3.1525775048
 H         -0.2816704715        3.1416555647        1.8967335147
 H         -0.3848618799        2.2779920123       -0.4087349140
 H          1.6590545208        1.3241776866       -1.4596284662
 H          4.1994080256       -0.8954121625        0.8371218372
 H          3.4689476530       -1.1382454795       -2.6719576315
 H          1.3236781775       -2.0392877319       -3.5388621888
 H         -0.4926169697       -2.6208645496       -1.9781248186
 C         -0.4802278862       -2.4150185711        0.7529301144
 H         -0.0434137554       -2.3906627182        1.7603770583
 C         -1.1079609695       -3.7764281352        0.5416698084
 C         -0.3465665287       -4.9932639769        0.9707664236
 C         -1.5627637747       -4.5623066461        1.7329880317
 H         -2.4631161652       -5.1518871505        1.6471586661
 H         -1.4230603811       -4.1207272610        2.7092464275
 H         -0.4088911316       -5.8814202013        0.3610515115
 H          0.6190266799       -4.8433038263        1.4302303204
 H         -1.7096954529       -3.8482982411       -0.3535627301
 O         -2.7262605774       -2.0152844452       -1.1550229162
