  62
        -98.93749168
 C          2.4651174705        0.8555268813        0.4402653994
 C          2.6049110708       -0.0851611790       -0.6081873904
 C          2.6405047018       -1.5002589888       -0.2098184300
 C          2.5388843823       -1.8282965285        1.0897324501
 C          2.3763749533       -3.2211969084        1.6259243206
 C          0.9118143235       -3.6681030794        1.4310972911
 C          0.7296873640       -4.8393428198        0.4652686215
 H          1.0357024147       -5.7632469494        0.9615591717
 H         -0.3383839260       -4.9143515305        0.2487394218
 C          1.4959939036       -4.7404341597       -0.8571694587
 H          1.0588092638       -5.4776996002       -1.5340573584
 H          2.5354945538       -5.0351845790       -0.7025816089
 C          1.4724882726       -3.3692884799       -1.5452680991
 H          0.5919707323       -2.7986347604       -1.2422258391
 H          1.3869824724       -3.5305467503       -2.6225824991
 C          2.7371756521       -2.5194710791       -1.3102694497
 H          3.5938055025       -3.1751876885       -1.1323628197
 H          2.9434023615       -1.9426296892       -2.2166506899
 H          0.4864104639       -3.9514167893        2.3954170313
 H          0.3332219929       -2.8128170498        1.0715516610
 H          3.0568826636       -3.8998199682        1.1168234406
 H          2.6293803936       -3.1979345280        2.6860988005
 O          2.4702342120       -0.8984695082        2.0757073899
 C          2.3957455311        0.4491851416        1.7767875795
 O          2.2814866909        1.1874301618        2.7759906693
 O          2.6735103403        0.2127259907       -1.8336191405
 C          2.2129964996        2.3424626411        0.2202497690
 C          0.7213912494        2.5089882101        0.0428681593
 C         -0.0365900808        3.3112491099        0.8867811893
 C         -1.4174766509        3.3370537790        0.7845461196
 C         -2.0721111806        2.5340857584       -0.1338402600
 C         -1.3197052404        1.7347873486       -0.9828280999
 C          0.0617961496        1.7546689094       -0.9171613603
 H          0.6290601698        1.1243288196       -1.5856294602
 N         -1.9793595500        0.8114827779       -1.8426382095
 S         -2.2329585190       -0.6468689520       -1.0229904090
 O         -1.1139913285       -0.9895740311       -0.1716226692
 O         -2.5801878486       -1.6181562225       -2.0372750186
 C         -3.6596260389       -0.2616954726       -0.0349589587
 C         -4.8857592191       -0.1664706935       -0.6640639184
 C         -5.9965608192        0.1839755661        0.0863278118
 C         -5.8612491390        0.4356198565        1.4438195017
 C         -4.6229937787        0.3356219575        2.0599181914
 C         -3.5077343387       -0.0153862921        1.3149283412
 H         -2.5240809086       -0.0991986614        1.7503491809
 H         -4.5181072686        0.5333626778        3.1145963013
 H         -6.7258637690        0.7121505662        2.0263270518
 H         -6.9612857593        0.2626535053       -0.3883052480
 H         -4.9408964193       -0.3733849838       -1.7198339483
 H         -1.4306751201        0.6057923180       -2.6682862195
 H         -3.1481709706        2.5157468277       -0.1941012997
 H         -1.9915317711        3.9660526289        1.4472816196
 H          0.4621580390        3.8934430804        1.6476090690
 H          2.5000484295        2.8431731815        1.1546561888
 C          2.9917181489        2.9653354812       -0.9185771914
 C          3.1927529180        4.4501834813       -0.9270158219
 C          4.3494648386        3.5383692521       -0.6508818819
 H          5.1123945985        3.4236083123       -1.4058493521
 H          4.7246747389        3.4813413126        0.3606455980
 H          3.1600800274        4.9670134510       -1.8736821320
 H          2.7866252779        5.0154928313       -0.1020148319
 H          2.8410183789        2.4700633708       -1.8681686612
