  62
        -98.94384299
 C          1.8194096965       -0.6620155975       -0.6303623609
 C          3.1180542778       -0.5858971553       -1.1874358385
 C          4.2231897593       -0.5107018026       -0.2253803840
 C          3.9626849390       -0.5445363588        1.0944098885
 C          4.9838115862       -0.5074605852        2.1989186926
 C          5.4377742703        0.9076527558        2.5820273804
 C          6.3469821424        1.5963396509        1.5634721588
 H          6.7607187174        2.4818607554        2.0501449441
 H          7.1822388562        0.9387485118        1.3204479424
 C          5.6377108201        2.0291380116        0.2726282571
 H          4.5574900792        2.0381798645        0.4367078508
 H          5.9303064916        3.0511754653        0.0211744946
 C          5.9474438109        1.1570916109       -0.9444054957
 H          7.0061217078        1.2457171615       -1.1981163491
 H          5.3666236993        1.5319537317       -1.7912718065
 C          5.6116020530       -0.3288136852       -0.7598067670
 H          5.6585688421       -0.8147788593       -1.7375056718
 H          6.3398768940       -0.7997600478       -0.0998973414
 H          5.9797400689        0.8316960455        3.5275428338
 H          4.5524496432        1.5239020531        2.7556981326
 H          5.8510903426       -1.1052293466        1.9172108260
 H          4.5140048271       -0.9656740326        3.0718904060
 O          2.7008563781       -0.6394243109        1.5899812502
 C          1.5982142847       -0.6757074073        0.7470184686
 O          0.5045249608       -0.7248008590        1.3375874144
 O          3.3413657932       -0.5803572901       -2.4282398408
 C          0.6257135516       -0.7294612317       -1.5630754872
 C         -0.3166613402        0.4269011375       -1.3337261914
 C          0.1929094583        1.6861146597       -1.0297074766
 C         -0.6481621618        2.7585162917       -0.8006796366
 C         -2.0211285685        2.6054979763       -0.8848608205
 C         -2.5404088901        1.3611249957       -1.2098223114
 C         -1.6930050862        0.2824428692       -1.4338870622
 H         -2.1172054296       -0.6787919755       -1.6806037342
 N         -3.9428981589        1.2107902467       -1.2996104581
 S         -4.7894239076        1.2360406539        0.1473641904
 O         -6.1858687997        1.1323463244       -0.2098897627
 O         -4.4005180937        2.4059376872        0.8906559084
 C         -4.2734548810       -0.2511774651        0.9860743319
 C         -2.9996956191       -0.3063254554        1.5154971340
 C         -2.5575208378       -1.4937918626        2.0772545225
 C         -3.3972713883       -2.5964809140        2.1082895848
 C         -4.6786639555       -2.5225360964        1.5816144245
 C         -5.1198758010       -1.3429976737        1.0045890881
 H         -6.1030464060       -1.2429195873        0.5735403415
 H         -5.3289737608       -3.3821660411        1.6115290068
 H         -3.0478587790       -3.5194523140        2.5443927023
 H         -1.5485530322       -1.5432522660        2.4548379180
 H         -2.3602646664        0.5609077008        1.4820044144
 H         -4.2234368972        0.3942561138       -1.8260257659
 H         -2.6936395038        3.4243230565       -0.6891321072
 H         -0.2316912458        3.7239788809       -0.5550717436
 H          1.2649604797        1.8141370425       -0.9646070382
 H          1.0439416124       -0.6324225339       -2.5768338889
 C         -0.0529189108       -2.0797766945       -1.4432958093
 C         -0.6948950813       -2.7217829511       -2.6362229078
 C          0.5882910829       -3.2695855311       -2.0899819084
 H          0.5686479537       -4.2144923203       -1.5683526727
 H          1.4970914949       -3.0986163937       -2.6485447911
 H         -1.5975584094       -3.2961323887       -2.4895342517
 H         -0.6559812625       -2.1898706125       -3.5750734051
 H         -0.5144245374       -2.2253728156       -0.4726390176
