  62
        -98.94487739
 C         -1.9465496601       -0.4103530120       -0.6624215396
 C         -2.9998497300       -1.2734116615       -0.2749857680
 C         -4.3477956201       -0.6966245818       -0.3175422590
 C         -4.5164893903        0.5748967775       -0.7242136312
 C         -5.8312539404        1.2963575871       -0.8488372624
 C         -6.3367199204        1.9088249193        0.4646792065
 C         -6.8579390903        0.9040450910        1.4929037583
 H         -7.3772807603        1.4757614623        2.2646022673
 H         -7.5935139902        0.2519187801        1.0209702294
 C         -5.7654315201        0.0554230324        2.1581801697
 H         -4.7921157402        0.5247758722        1.9970632489
 H         -5.9324897401        0.0275977542        3.2372902198
 C         -5.7038207199       -1.3923965685        1.6714584922
 H         -4.8740707698       -1.8901653475        2.1795990831
 H         -6.6254334998       -1.9106551281        1.9452950032
 C         -5.4909116600       -1.5411776711        0.1592685625
 H         -6.4040997600       -1.2832793821       -0.3764983379
 H         -5.2434539198       -2.5844524014       -0.0513184857
 H         -5.5310227205        2.4993641402        0.9070462255
 H         -7.1500504505        2.5932270588        0.2124855153
 H         -6.5850610103        0.6176286563       -1.2490325012
 H         -5.6744102605        2.1041968059       -1.5668924239
 O         -3.4783795404        1.3683910370       -1.1008868426
 C         -2.1695562703        0.9063173573       -1.0646916419
 O         -1.3207264205        1.7483746668       -1.4138223334
 O         -2.8210241698       -2.4666483108        0.0880116540
 C         -0.5235041601       -0.9405838118       -0.6403586987
 C          0.3180731498       -0.1006925900        0.2871257398
 C         -0.0797301001        0.0191673922        1.6174031296
 C          0.6348450298        0.8021140839        2.5016072782
 C          1.7694625197        1.4752920633        2.0815968170
 C          2.1780132697        1.3602213510        0.7591518672
 C          1.4575504597        0.5690642694       -0.1274347214
 H          1.7895922397        0.5141427177       -1.1499006513
 N          3.3131329995        2.0507160804        0.3042641859
 S          4.4565456096        1.2879124089       -0.6451351428
 O          5.6004817095        2.1721738491       -0.6135019943
 O          3.9173582496        0.9878274766       -1.9460947122
 C          4.8294782299       -0.2149153695        0.2394963999
 C          5.7333601499       -0.1523376675        1.2824746097
 C          5.9840686001       -1.2957879862        2.0228838417
 C          5.3223716002       -2.4750420868        1.7150452538
 C          4.4177728402       -2.5209490088        0.6657118739
 C          4.1654421600       -1.3811231201       -0.0818315181
 H          3.4723770900       -1.3796795117       -0.9066970181
 H          3.9054451103       -3.4391554993        0.4264588455
 H          5.5142661504       -3.3646523058        2.2939555653
 H          6.6905942901       -1.2644338447        2.8365647216
 H          6.2331874998        0.7818756729        1.4811300781
 H          3.7595588495        2.6229978417        1.0059651849
 H          2.3254292196        2.0954387846        2.7682784059
 H          0.3098625198        0.8895615456        3.5273735881
 H         -0.9682430500       -0.5044275973        1.9432358105
 H         -0.5998129999       -1.9527333810       -0.2162267269
 C          0.0256957099       -1.0449105441       -2.0466254085
 C          1.0783451900       -2.0619585946       -2.3674845768
 C         -0.3197850300       -2.2439809856       -2.8757707964
 H         -0.5113737600       -2.1037320875       -3.9290292667
 H         -0.9359024798       -3.0033480749       -2.4167448651
 H          1.8539499000       -1.7959795457       -3.0707341473
 H          1.4052908402       -2.7080213531       -1.5664534157
 H          0.0684839697       -0.0877813750       -2.5550422602
