  62
        -98.93864964
 C         -1.8506341379       -0.9857057654        0.3969820590
 C         -2.1599363676        0.1652542259       -0.3639243289
 C         -3.4738969364        0.7894112034       -0.1149788751
 C         -4.2983428430        0.2681569934        0.8115956617
 C         -5.6578425583        0.7166739774        1.3054376801
 C         -6.4879051319        1.7222660136        0.5113456002
 C         -6.9816903834        1.2178144861       -0.8439600142
 H         -7.4810573381        2.0448585732       -1.3535763813
 H         -7.7249859057        0.4347258223       -0.6742151337
 C         -5.9079678006        0.6428675898       -1.7644222277
 H         -6.3951272098        0.3344734831       -2.6934571562
 H         -5.4802630334       -0.2547784704       -1.3132261871
 C         -4.7769311511        1.6024547994       -2.1294658528
 H         -5.1945598965        2.5237846563       -2.5401737838
 H         -4.1828356317        1.1259283089       -2.9138198854
 C         -3.8189220741        1.9666481784       -0.9814534212
 H         -4.2128872224        2.7818488722       -0.3791853596
 H         -2.8795638021        2.3114860625       -1.4232034485
 H         -5.9422391990        2.6539723356        0.3939484758
 H         -7.3680238524        1.9468780561        1.1201422307
 H         -6.2405778928       -0.2002582532        1.4393723643
 H         -5.4900725099        1.1235424974        2.3089823034
 O         -3.9477438885       -0.8305927557        1.5408843748
 C         -2.7455021108       -1.4820383514        1.3499010700
 O         -2.5891838045       -2.4838815947        2.0757781253
 H          0.5153638824        0.6641564567       -0.2045901049
 C          1.0296064138        0.1444048453        0.5901534019
 C          0.5906049122       -1.1152804113        0.9721159034
 C          1.2575279940       -1.7663912548        2.0028085236
 C          2.3365285895       -1.1705085827        2.6332380219
 C          2.7724665480        0.0844909523        2.2479818508
 C          2.1061442169        0.7452347452        1.2243700389
 N          2.5560835488        2.0172854156        0.8093449176
 S          4.1363808140        2.0497495460        0.2474548276
 O          5.0389565357        2.0600222675        1.3713486323
 O          4.2159830562        3.1885131831       -0.6397015276
 C          4.3083486853        0.5226611341       -0.6582823984
 C          3.6254762551        0.3953468832       -1.8515470789
 C          3.6809536273       -0.8109011969       -2.5297149730
 C          4.4080053271       -1.8664647796       -2.0010644518
 C          5.0876678777       -1.7226364101       -0.8018302227
 C          5.0369405688       -0.5177861914       -0.1194386893
 H          5.5488232176       -0.3631117847        0.8160557897
 H          5.6516293617       -2.5458737570       -0.3940432000
 H          4.4451624326       -2.8070207044       -2.5279057349
 H          3.1525017528       -0.9232085632       -3.4630416389
 H          3.0708608241        1.2372701558       -2.2347462998
 H          1.9416226109        2.4405415243        0.1275922678
 H          3.6166182983        0.5619460572        2.7190113154
 H          2.8442954834       -1.6890302982        3.4320461842
 H          0.9181728260       -2.7430973578        2.3156290030
 C         -0.5591229459       -1.7760455785        0.2503708648
 H         -0.7505096401       -2.7400789084        0.7398077963
 C         -0.1849941260       -2.0389820680       -1.1968401064
 C          0.7358350121       -3.1771178951       -1.5121594873
 C         -0.7143420926       -3.2610960947       -1.8816868398
 H         -0.9898688095       -3.1890028929       -2.9231588059
 H         -1.3514147810       -3.9190471820       -1.3081799889
 H          1.0843187278       -3.7807543677       -0.6881729403
 H          1.4610290999       -3.0471486300       -2.2998803083
 H         -0.0948084916       -1.1373938821       -1.7875663837
 O         -1.3896893715        0.6813765038       -1.2190281373
