  62
        -98.93828445
 C          2.2088601232        1.0655339143        0.5523508897
 C          2.3028943864        0.1716284822       -0.5404901603
 C          3.0697174602       -1.0649730668       -0.3055998576
 C          3.6050830282       -1.2917353837        0.9060256931
 C          4.3871900508       -2.4920456605        1.3783455217
 C          5.4420591823       -3.0710674198        0.4254604120
 C          6.1442894595       -2.0409533643       -0.4712272644
 H          5.9126139876       -1.0298364398       -0.1323874467
 H          7.2241602677       -2.1745001708       -0.3852776093
 C          5.7701058276       -2.1819993616       -1.9487189329
 H          6.5439551349       -1.7042920209       -2.5542320919
 H          5.7608456431       -3.2429459956       -2.2077939796
 C          4.4335806337       -1.5584856079       -2.3494728247
 H          4.2325035665       -1.8300338226       -3.3885030483
 H          4.5064173606       -0.4683014003       -2.3115926255
 C          3.2270282185       -1.9726319939       -1.4912653726
 H          3.2932613525       -3.0165980678       -1.1937434628
 H          2.3223078929       -1.8409000680       -2.0919246134
 H          4.9848081006       -3.8346673797       -0.2023052229
 H          6.1823121601       -3.5778872454        1.0468604518
 H          4.8685334831       -2.1695582290        2.3048538741
 H          3.6743312656       -3.2787265645        1.6434009410
 O          3.4625194994       -0.4140744606        1.9406057092
 C          2.7665666835        0.7742068539        1.7948197453
 O          2.7092123088        1.4682832255        2.8310072652
 O          1.7676490496        0.3880551478       -1.6581339467
 C          1.4388722134        2.3654784473        0.4029441470
 C          0.0079304017        2.0683596497        0.0230547289
 C         -0.6641357379        2.7133092450       -1.0062729326
 C         -1.9708918703        2.3721487151       -1.3110438086
 C         -2.6361659560        1.3932057842       -0.5966430952
 C         -1.9757698665        0.7471804980        0.4405050610
 C         -0.6690807671        1.0929567293        0.7451822508
 H         -0.1539184500        0.5845361312        1.5522950399
 N         -2.6475141839       -0.2427753542        1.1829864339
 S         -3.3365132692       -1.5167000314        0.3282192805
 O         -3.3898373888       -2.6152432298        1.2691739862
 O         -2.6401901234       -1.7660779107       -0.9125223306
 C         -4.9937926103       -0.9540485006        0.0012174384
 C         -5.7823708059       -0.5950565464        1.0768844077
 C         -7.0758945742       -0.1577216326        0.8412160782
 C         -7.5568963792       -0.0900221704       -0.4580679211
 C         -6.7536586528       -0.4573939681       -1.5267846043
 C         -5.4581015879       -0.8948384969       -1.2980846962
 H         -4.7943773322       -1.1849984877       -2.0970804221
 H         -7.1291648466       -0.4041142473       -2.5360339547
 H         -8.5638518190        0.2514335047       -0.6388573607
 H         -7.7034456600        0.1286867129        1.6696746525
 H         -5.3706230734       -0.6664711366        2.0697382193
 H         -2.1016549217       -0.6016613877        1.9535984177
 H         -3.6510341554        1.1205008414       -0.8357373611
 H         -2.4781138112        2.8757280526       -2.1197478010
 H         -0.1614354912        3.4749511686       -1.5790900704
 H          1.4372798997        2.8339051483        1.3982920854
 C          2.1472610358        3.2856897833       -0.5689395774
 C          2.0225546965        4.7722339876       -0.4288168426
 C          3.3115451514        4.0921981408       -0.0805345709
 H          4.1598599857        4.2227567487       -0.7355765137
 H          3.5772301754        3.9962825793        0.9625054600
 H          1.9889587120        5.3738064073       -1.3245217464
 H          1.4150494998        5.1487695144        0.3800808181
 H          2.2123476361        2.8656581834       -1.5660815568
