  62
        -98.94125001
 C          2.2064617310        0.9656502368       -0.0748852351
 C          2.8769516882        0.3998247516        1.0415447338
 C          3.6761785547       -0.8018296636        0.7840675787
 C          3.7103717753       -1.3238663617       -0.4549286929
 C          4.4533306930       -2.5625758009       -0.8761838900
 C          5.9348398887       -2.3245985298       -1.1996286039
 C          6.8311235559       -2.0616877348        0.0111606370
 H          6.6808127640       -2.8493502379        0.7500466912
 H          7.8643377379       -2.1317000254       -0.3345423737
 C          6.6220663882       -0.6899324785        0.6677166222
 H          6.0853220148       -0.0343419322       -0.0218910920
 H          7.5922703718       -0.2266615954        0.8601986463
 C          5.8683369320       -0.7315677206        1.9970264481
 H          6.4588132976       -1.2767186167        2.7365858741
 H          5.7448330230        0.2941102372        2.3534990124
 C          4.4773955408       -1.3740155801        1.9142426992
 H          4.5670439077       -2.4549067815        1.8063909841
 H          3.9423922951       -1.1579446886        2.8422053561
 H          6.0094399616       -1.4874793182       -1.8975645918
 H          6.3029747350       -3.2171498794       -1.7107669399
 H          4.3660366516       -3.3223118894       -0.0987087573
 H          3.9578374130       -2.9303834630       -1.7775115821
 O          3.0300473126       -0.7736375014       -1.4937044992
 C          2.2724897085        0.3823696600       -1.3401530035
 O          1.7267617024        0.7576552257       -2.3960599412
 H         -0.2964935579        0.8260448593       -1.3807832036
 C         -0.7681564156        1.1247384504       -0.4555668803
 C         -0.0422032239        1.8676919489        0.4664330297
 C         -0.6583590327        2.2344967645        1.6563715091
 C         -1.9682598060        1.8669960768        1.9129701011
 C         -2.6884406301        1.1303447784        0.9898682167
 C         -2.0795379336        0.7545577456       -0.2006593648
 N         -2.8047015865        0.0013733793       -1.1466865017
 S         -3.3935998417       -1.4832059227       -0.6165110796
 O         -2.5694297066       -2.0305470562        0.4376835952
 O         -3.5346760735       -2.2903423317       -1.8088361258
 C         -5.0126071907       -1.0913894969        0.0129628576
 C         -5.3329811145       -1.3869693777        1.3234675064
 C         -6.6009822370       -1.0752193463        1.7894400056
 C         -7.5203804995       -0.4773119535        0.9411360171
 C         -7.1833949500       -0.1892460440       -0.3732597410
 C         -5.9182496874       -0.4994569456       -0.8458538000
 H         -5.6163943714       -0.2968789951       -1.8598565447
 H         -7.9012030699        0.2754011400       -1.0298472577
 H         -8.5056000975       -0.2344757421        1.3066892859
 H         -6.8645671550       -1.2985264465        2.8107703234
 H         -4.5824252801       -1.8460494626        1.9470353380
 H         -2.2984096251       -0.1247976656       -2.0127229007
 H         -3.7078965242        0.8396663688        1.1843803670
 H         -2.4331992168        2.1556794310        2.8431157307
 H         -0.0969664665        2.7940553010        2.3900926101
 C          1.3957312418        2.2240289212        0.1883456283
 H          1.8188464538        2.6330730774        1.1192400797
 C          1.5623263604        3.2835422864       -0.8930358792
 C          0.4463759682        3.7683818288       -1.7652348461
 C          0.9871787245        4.6538336695       -0.6858397966
 H          1.5791115330        5.5126806623       -0.9632738390
 H          0.3720711988        4.8025680977        0.1888930418
 H          0.6820147316        3.9953993996       -2.7939082144
 H         -0.5350319258        3.3422746252       -1.6294406508
 H          2.5412931623        3.2340968625       -1.3589573201
 O          2.8120653976        0.8855431693        2.2019028771
