  62
        -98.93762024
 C         -2.2839917088       -1.3483811484       -0.0766990481
 C         -3.0505894338       -0.6716770978        0.9086978442
 C         -3.7686223024        0.5344378195        0.4763895034
 C         -3.6742709472        0.9240757421       -0.8074105967
 C         -4.2682404222        2.1757343373       -1.3879039482
 C         -3.3976624467        3.3915167779       -1.0099980553
 C         -4.0818929413        4.3948564705       -0.0802949865
 H         -3.3097599924        5.0718164440        0.2914433739
 H         -4.7896724999        4.9894540181       -0.6617817104
 C         -4.8394528215        3.7992032206        1.1103100679
 H         -5.0396904477        4.6209866308        1.8009855232
 H         -5.8100583947        3.4278410114        0.7784418933
 C         -4.1194662915        2.6794859218        1.8728197900
 H         -3.0402349447        2.7504252430        1.7321490939
 H         -4.3107762912        2.8162275070        2.9389898012
 C         -4.5860032053        1.2568887000        1.5108510190
 H         -5.6331076067        1.2831541030        1.1975876568
 H         -4.5242089449        0.6297534146        2.4048737657
 H         -2.4793278722        3.0249188462       -0.5443805687
 H         -3.0950676712        3.9179219190       -1.9168073661
 H         -4.2951212991        2.0511435988       -2.4706540930
 H         -5.2854774719        2.3043840264       -1.0249483214
 O         -2.9439803984        0.2445684605       -1.7270847311
 C         -2.2170913018       -0.8880100499       -1.3910450675
 O         -1.5832743263       -1.3676197377       -2.3541880611
 O         -3.1319162789       -1.0670592580        2.1022243745
 C         -1.5021783809       -2.5663490146        0.3926113954
 C         -0.0751592110       -2.1595268227        0.6719979525
 C          0.4157183838       -2.1138163002        1.9715747298
 C          1.7028418057       -1.6720493628        2.2245111793
 C          2.5202470383       -1.2536477095        1.1894864830
 C          2.0346873189       -1.2884457645       -0.1107393116
 C          0.7555243341       -1.7559699843       -0.3642845357
 H          0.3813890755       -1.7611204855       -1.3775995444
 N          2.8460325951       -0.8088233679       -1.1670387843
 S          3.0571431596        0.8648970767       -1.1392618958
 O          1.9227735716        1.5300988085       -0.5359204274
 O          3.3772130625        1.2423121214       -2.4988263523
 C          4.5016847585        1.0772341037       -0.1203064188
 C          5.6981799119        0.5559102276       -0.5730817501
 C          6.8313389162        0.7045130465        0.2104789359
 C          6.7491908614        1.3683998770        1.4257016728
 C          5.5410284864        1.8882583833        1.8645769980
 C          4.4033865418        1.7427466071        1.0856657576
 H          3.4409721125        2.1245991277        1.3868663141
 H          5.4788619285        2.4041897568        2.8092435745
 H          7.6321998642        1.4819880452        2.0345211912
 H          7.7726987846        0.3023146961       -0.1274143385
 H          5.7161363805        0.0520965077       -1.5250008990
 H          2.4783422409       -1.0665709319       -2.0737879739
 H          3.5193998674       -0.8964320316        1.3790892914
 H          2.0700079117       -1.6437906232        3.2389690606
 H         -0.2297260676       -2.4055286368        2.7872269526
 H         -1.9627550871       -2.8519786055        1.3476904742
 C         -1.5806611638       -3.7490421307       -0.5505581490
 C         -1.2750177026       -5.1172595643       -0.0213934986
 C         -2.6828741824       -4.7491405424       -0.3792406371
 H         -3.1240290687       -5.1835058251       -1.2636966897
 H         -3.3872272364       -4.5834993140        0.4228317361
 H         -0.7461150074       -5.8086335968       -0.6590764363
 H         -1.0248609366       -5.2030446008        1.0250829801
 H         -1.2754016663       -3.5191363057       -1.5628165604
