  62
        -98.93471253
 C         -2.3369130722       -1.0867293600       -0.5856346836
 C         -3.4229450753       -0.6242865697        0.2021980917
 C         -3.9875360620        0.6897807811       -0.1416375351
 C         -3.4579135111        1.3833889211       -1.1633505813
 C         -3.8876925706        2.7170237674       -1.7216298899
 C         -4.2666820070        3.8160802537       -0.7206699338
 C         -3.4653910224        3.8041400051        0.5894415175
 H         -2.6115325948        3.1287881470        0.5031530088
 H         -3.0676511434        4.8043495280        0.7718658776
 C         -4.3102427317        3.4074122550        1.8025773088
 H         -3.8108455638        3.7617349192        2.7076066139
 H         -5.2742312912        3.9169721016        1.7393884196
 C         -4.5472480464        1.9076821530        1.9754388281
 H         -3.6123831666        1.4164730363        2.2605025863
 H         -5.2456239782        1.7712404764        2.8045994410
 C         -5.1004338753        1.1777322742        0.7404606211
 H         -5.8025880426        1.8029113898        0.1945472774
 H         -5.6247255916        0.2828835548        1.0864289147
 H         -4.1171456049        4.7698159297       -1.2295986034
 H         -5.3282730901        3.7477156608       -0.4877160596
 H         -4.7287697456        2.5455037570       -2.3998506645
 H         -3.0456053736        3.0529863462       -2.3316327504
 O         -2.4119677513        0.9058085159       -1.8926925983
 C         -1.8169204962       -0.3165377129       -1.6243178920
 O         -0.8630008741       -0.5765466236       -2.3863873944
 O         -3.9140509719       -1.2945816123        1.1490200663
 C         -1.7492287021       -2.4382890763       -0.2107240868
 C         -0.5068716683       -2.2388750510        0.6244170871
 C         -0.5068081953       -2.5311501353        1.9833323970
 C          0.6186620457       -2.2983973992        2.7548151197
 C          1.7644035031       -1.7667869017        2.1901025367
 C          1.7694422782       -1.4627426680        0.8352097898
 C          0.6457930274       -1.7095380201        0.0611522816
 H          0.6509034462       -1.4504456735       -0.9874393535
 N          2.9291427056       -0.8998394608        0.2454539328
 S          3.2907146462        0.6663774495        0.7761593681
 O          3.5444540468        0.6202005798        2.1934115904
 O          2.2650380731        1.5940567609        0.3448056547
 C          4.8102348264        0.9713952444       -0.1019953263
 C          5.9890092353        0.4784756527        0.4236275604
 C          7.1694941644        0.6843123647       -0.2720704454
 C          7.1511049857        1.3737374338       -1.4754677744
 C          5.9597775959        1.8619496340       -1.9904168826
 C          4.7752301963        1.6584455991       -1.2998246308
 H          3.8269100148        2.0265409078       -1.6587979090
 H          5.9476867924        2.3988485356       -2.9253671873
 H          8.0709503862        1.5339620569       -2.0153380770
 H          8.0982185988        0.3077498688        0.1251108353
 H          5.9548079362       -0.0438998810        1.3650960128
 H          2.8189516344       -0.8541761937       -0.7610899532
 H          2.6383597829       -1.5586532729        2.7846367288
 H          0.6026041020       -2.5292028103        3.8093407539
 H         -1.4057237507       -2.9230447535        2.4371610524
 H         -2.5073053268       -2.9122968632        0.4270986651
 C         -1.4914507582       -3.3395236768       -1.4012207475
 C         -1.3496547210       -4.8140015767       -1.1755481021
 C         -2.5690704011       -4.2740480836       -1.8590182325
 H         -2.6867658111       -4.4426302207       -2.9188898884
 H         -3.5006840081       -4.2686689838       -1.3122268890
 H         -0.6273465448       -5.3573802801       -1.7648842088
 H         -1.4545279944       -5.1758541672       -0.1639804414
 H         -0.8753857891       -2.8841515520       -2.1652203856
