  62
        -98.93865205
 C         -2.0015554857       -1.3620688799        0.1932076706
 C         -1.9469820676       -0.3887277229        1.2257585546
 C         -2.8876782198        0.7327821329        1.1214149006
 C         -3.7612285234        0.7599918958        0.0984096726
 C         -4.7430438727        1.8642646632       -0.1640510221
 C         -4.1416997173        2.9254251850       -1.0967514126
 C         -2.7425483160        3.3825496950       -0.6843531630
 H         -2.0569685210        2.5364614806       -0.7737755041
 H         -2.4218902824        4.1396210518       -1.4030625319
 C         -2.6549378441        3.9575221177        0.7365339557
 H         -2.0600402748        4.8728387477        0.7092352071
 H         -3.6512061023        4.2293417753        1.0872815100
 C         -1.9962554518        3.0317513518        1.7616563190
 H         -1.8009002117        3.6122997151        2.6674241929
 H         -1.0293537505        2.6882407005        1.3839290723
 C         -2.8157595960        1.8020788113        2.1745052231
 H         -2.3185051467        1.3451614398        3.0355134177
 H         -3.8167891060        2.1118245343        2.4816329775
 H         -4.0813116259        2.5062758609       -2.1035939976
 H         -4.8150306038        3.7837661731       -1.1249109637
 H         -5.6269581598        1.4342829074       -0.6377353470
 H         -5.0337084213        2.3172936277        0.7817008951
 O         -3.8045610327       -0.2009577244       -0.8551429006
 C         -2.9051462065       -1.2591368802       -0.8653128317
 O         -3.0325185285       -2.0043818667       -1.8550484653
 H          1.5111899438       -2.1513727678        1.2980375145
 C          1.4734723280       -1.9426628911        0.2369091308
 C          0.2745986830       -2.0714845916       -0.4504891147
 C          0.2472176384       -1.7656126510       -1.8076165198
 C          1.3878593735       -1.3266456472       -2.4542722348
 C          2.5766209842       -1.1807447715       -1.7596827261
 C          2.6168485178       -1.4961039554       -0.4094940081
 N          3.8432687818       -1.2996076086        0.2910074515
 S          3.8806034801        0.1876782148        1.0960425463
 O          5.2761161514        0.4754412048        1.3435185514
 O          3.0485049732        0.1381999757        2.2799363209
 C          3.2144102945        1.3271708559       -0.0933095386
 C          4.0653225060        1.8933716703       -1.0217068399
 C          3.5427239783        2.7656802241       -1.9628333743
 C          2.1860837824        3.0520794691       -1.9583822716
 C          1.3465148760        2.4763057531       -1.0168423421
 C          1.8612131453        1.6027155811       -0.0727406715
 H          1.2382838604        1.1329305442        0.6742466465
 H          0.2915547835        2.7017594059       -1.0143090088
 H          1.7765433493        3.7299298101       -2.6905029017
 H          4.1915597276        3.2180767563       -2.6952725372
 H          5.1129698961        1.6443492499       -0.9796980332
 H          4.0038530166       -2.0164825039        0.9878764474
 H          3.4708942781       -0.8286664281       -2.2470373517
 H          1.3491514543       -1.0885577852       -3.5058849234
 H         -0.6850737680       -1.8614374039       -2.3437307853
 C         -0.9802536761       -2.4842992244        0.2812421476
 H         -0.7295928562       -2.5645038048        1.3484257316
 C         -1.4740708025       -3.8344665718       -0.1949509138
 C         -0.7839089287       -5.0694635409        0.2986830500
 C         -2.1681408996       -4.7436422928        0.7719849499
 H         -2.9929200653       -5.3407502645        0.4138412344
 H         -2.2912286701       -4.3952731207        1.7874320849
 H         -0.6543819662       -5.8944874113       -0.3844845872
 H          0.0312508938       -4.9441485543        0.9958209537
 H         -1.8323527986       -3.8312192265       -1.2152109763
 O         -1.1410678289       -0.4594652715        2.1935442181
