  62
        -98.94493521
 C          1.8595539957        0.7393355205       -0.1684651059
 C          2.4131695387        0.0974668948        0.9644421016
 C          3.4738224512       -0.8821750376        0.6952803553
 C          3.8222224127       -1.1394945431       -0.5789456663
 C          4.9177722376       -2.0774246692       -0.9940259142
 C          6.2587613512       -1.3419546638       -1.1263565078
 C          6.6048559192       -0.4663347983        0.0779858132
 H          7.5837750900       -0.0219428011       -0.1140788448
 H          5.8861156240        0.3538870493        0.1402959226
 C          6.6369150455       -1.2141174205        1.4182655954
 H          7.5280612835       -0.9068592961        1.9695863974
 H          6.7196023596       -2.2872787992        1.2421467082
 C          5.4360489801       -0.9407042871        2.3255873122
 H          5.2940180007        0.1379171103        2.4296047448
 H          5.6625734688       -1.3382592631        3.3185022639
 C          4.1067204899       -1.5610374888        1.8775005032
 H          4.2451364128       -2.6266364240        1.6825153058
 H          3.3952962570       -1.4525370652        2.7016516911
 H          7.0451258003       -2.0836888726       -1.2776634573
 H          6.2176132020       -0.7047056106       -2.0127221326
 H          5.0014140592       -2.8780543280       -0.2614581645
 H          4.6526838813       -2.5087092512       -1.9609141862
 O          3.2373389360       -0.5351469543       -1.6442494325
 C          2.2471119508        0.4221351195       -1.4706439946
 O          1.8017449066        0.8985561076       -2.5307725357
 H         -0.3325947064       -0.6294438241        0.2313763764
 C         -0.9363658656        0.0199763020       -0.3906388994
 C         -0.5121982812        1.3243237649       -0.6164730756
 C         -1.3061933904        2.1500121406       -1.4008107134
 C         -2.4744448047        1.6684926018       -1.9676441437
 C         -2.8805020183        0.3639767166       -1.7593561343
 C         -2.1025766504       -0.4654452273       -0.9604721148
 N         -2.5144822714       -1.7886889656       -0.7264543893
 S         -4.1201092029       -2.0436808500       -0.3280058213
 O         -4.1276687929       -3.2558921924        0.4607101535
 O         -4.9193422609       -2.0703765075       -1.5275662105
 C         -4.5807888746       -0.6399208991        0.6724861925
 C         -3.8814114300       -0.4184118110        1.8424636821
 C         -4.1996795513        0.6866417724        2.6146190361
 C         -5.2072257502        1.5471673649        2.2057054675
 C         -5.9040724636        1.3077444823        1.0317811583
 C         -5.5879970534        0.2052397430        0.2539325296
 H         -6.1011829931       -0.0166696612       -0.6674714130
 H         -6.6883993652        1.9773218203        0.7179006914
 H         -5.4493978413        2.4087158026        2.8076102758
 H         -3.6573447087        0.8737270722        3.5276430726
 H         -3.1056117639       -1.1076682356        2.1361582430
 H         -1.8986419246       -2.3087247021       -0.1192903280
 H         -3.7777687196       -0.0302749837       -2.2080176028
 H         -3.0753267767        2.3185402252       -2.5848268727
 H         -1.0063409329        3.1694027854       -1.5781565663
 C          0.7712573360        1.7773871556        0.0355673298
 H          0.6039966296        1.8119751855        1.1227225970
 C          1.2416965947        3.1400810708       -0.4271970180
 C          0.7060548426        4.3831484911        0.2163369162
 C          2.1153190118        3.9495332816        0.4823179740
 H          2.9238578015        4.5189836044        0.0489722718
 H          2.3487580441        3.5287051363        1.4496308663
 H         -0.0175725695        4.2640156855        1.0082430905
 H          0.5482992285        5.2555632700       -0.3995605399
 H          1.4654296786        3.1646579706       -1.4877558748
 O          2.0309471707        0.3266619223        2.1444142504
