  62
        -98.94074221
 C          2.4342730573        1.0691989594       -0.2246402636
 C          3.7413576977        1.1714827931        0.3100211793
 C          4.7487304319        0.2792738959       -0.2778229430
 C          4.3843627813       -0.5673675787       -1.2583800943
 C          5.2946226650       -1.5694552488       -1.9062469314
 C          5.2465937523       -2.9193488833       -1.1768288843
 C          5.4156995073       -2.8097641806        0.3385419350
 H          4.5538403503       -2.2833760718        0.7556456777
 H          5.3963209866       -3.8246393374        0.7417489561
 C          6.7051609303       -2.1061985315        0.7844712019
 H          7.4209661608       -2.0887442472       -0.0381028981
 H          7.1561773931       -2.6828956573        1.5946909905
 C          6.5017183298       -0.6838901078        1.3094273625
 H          5.7169847452       -0.6832885853        2.0701473278
 H          7.4278384032       -0.3647967729        1.7948121477
 C          6.1513988603        0.3726680628        0.2541680569
 H          6.2253677097        1.3544441155        0.7308964832
 H          6.8755855844        0.3314016519       -0.5618438309
 H          4.2809869085       -3.3885904925       -1.3799381312
 H          6.0290065451       -3.5607597288       -1.5865387891
 H          6.3113560238       -1.1813077716       -1.9069542787
 H          4.9685656781       -1.7128164505       -2.9377715303
 O          3.1192415866       -0.6373435005       -1.7462285772
 C          2.1115499160        0.1728541620       -1.2431981488
 O          1.0014662868        0.0054060986       -1.7843393421
 O          4.0498536654        1.9715255094        1.2335018389
 C          1.3425969656        1.9596505075        0.3432835175
 C          0.2676372103        1.0928656411        0.9504632752
 C          0.5995501525        0.2860760564        2.0363199247
 C         -0.3394749825       -0.5503850531        2.6066470922
 C         -1.6319193157       -0.6016267117        2.1117813495
 C         -1.9714468629        0.1909602034        1.0246013771
 C         -1.0245701866        1.0370687216        0.4567078439
 H         -1.3011276044        1.6431065861       -0.3917930093
 N         -3.2889601090        0.1859442077        0.5209280288
 S         -4.0719699970       -1.2685794568        0.1767006857
 O         -4.1522729475       -2.0559494805        1.3805912920
 O         -3.4711804769       -1.9174044787       -0.9692773276
 C         -5.6873878736       -0.6444257475       -0.2434547707
 C         -6.0754554829       -0.5746919803       -1.5672221420
 C         -7.3259210127       -0.0598357859       -1.8727538337
 C         -8.1599526890        0.3767405356       -0.8548013261
 C         -7.7557226198        0.3003279487        0.4699972117
 C         -6.5078931228       -0.2145552877        0.7820280647
 H         -6.1542382193       -0.2994911368        1.7960445509
 H         -8.4080519943        0.6396672437        1.2583627893
 H         -9.1318920734        0.7776187449       -1.0956046925
 H         -7.6433853992       -0.0010760175       -2.9014849934
 H         -5.3960382460       -0.9307485324       -2.3252610164
 H         -3.3667066068        0.7828408105       -0.2930201600
 H         -2.3668527965       -1.2608774624        2.5424516026
 H         -0.0671711584       -1.1710275663        3.4474536280
 H          1.6100572613        0.3204903117        2.4210082419
 H          1.8221423681        2.5265762583        1.1540080618
 C          0.8415380097        2.9340879730       -0.7008927925
 C          0.1397819075        4.1879990509       -0.2744854190
 C          1.5239174037        4.2601750211       -0.8438380540
 H          1.6548293339        4.6669502680       -1.8353743226
 H          2.3447665102        4.4711470469       -0.1743297796
 H         -0.6803569362        4.5511105451       -0.8751258213
 H          0.0178313412        4.3534440790        0.7851329289
 H          0.5121179976        2.4445141115       -1.6105742520
