  62
        -98.93051538
 C         -1.1771539335       -0.7197182988        0.6032373281
 C         -1.9976131093       -0.7348283220       -0.5483527330
 C         -3.0080731832        0.3358867867       -0.6389045264
 C         -3.0519514665        1.2803379643        0.3161420108
 C         -4.0293735136        2.4171176516        0.4335479298
 C         -5.2183482445        2.0214910019        1.3257893788
 C         -6.3669087705        1.3245413414        0.5971900926
 H         -7.0731834786        0.9829116674        1.3573435112
 H         -6.8866956838        2.0521499077       -0.0295596196
 C         -5.9637847189        0.1304082896       -0.2720148335
 H         -5.2309530464       -0.4803835452        0.2581133934
 H         -6.8511764233       -0.4870553012       -0.4236243794
 C         -5.4061327019        0.5418566047       -1.6428083159
 H         -5.9286034893       -0.0112425812       -2.4259855366
 H         -5.6225654481        1.5965253647       -1.8126678191
 C         -3.9048644371        0.2848534036       -1.8457205470
 H         -3.5194229550        0.9851013890       -2.5947272438
 H         -3.7582880519       -0.7196440100       -2.2552065690
 H         -4.8385478869        1.3742408860        2.1205699229
 H         -5.6149102283        2.9216965663        1.7997510083
 H         -4.3630572014        2.7403592741       -0.5481099286
 H         -3.4922836552        3.2405111010        0.9096429073
 O         -2.1999486144        1.2905105554        1.3787577626
 C         -1.2442013438        0.3061581595        1.5438529879
 O         -0.5208820518        0.4503337212        2.5523318794
 O         -1.8994693683       -1.5966455062       -1.4583951482
 C         -0.1163060955       -1.7954167130        0.8016132851
 C          0.7920528188       -1.7941758719       -0.4077107085
 C          1.2160073798       -2.8720210611       -1.1734349585
 C          2.0859240397       -2.6823971608       -2.2364000423
 C          2.5762786585       -1.4311206238       -2.5544604655
 C          2.1604844793       -0.3409635343       -1.7977527860
 C          1.2816315750       -0.5349162892       -0.7482961356
 H          0.9448300364        0.3262008370       -0.1924364020
 N          2.6165502033        0.9558911156       -2.0739111006
 S          2.7809252166        2.0693554348       -0.8396523079
 O          1.4902474162        2.5675935299       -0.4327114799
 O          3.6931852183        3.0564995983       -1.3788037150
 C          3.5819752328        1.1809637033        0.4848451428
 C          2.9182441088        0.9023900910        1.6617975424
 C          3.5747879899        0.1734854300        2.6420742931
 C          4.8741123288       -0.2599226245        2.4323810637
 C          5.5310670549        0.0363992821        1.2473638580
 C          4.8802702508        0.7614160523        0.2636013861
 H          5.3609216148        1.0220610049       -0.6652642540
 H          6.5436518985       -0.2971056661        1.0877956149
 H          5.3764866770       -0.8293441303        3.1982906974
 H          3.0557702403       -0.0529451903        3.5600063323
 H          1.9033447270        1.2419883029        1.8047486352
 H          3.3585649156        1.0194674363       -2.7543883894
 H          3.2569917889       -1.2930926902       -3.3800003854
 H          2.3914415906       -3.5351554598       -2.8235910972
 H          0.8686488601       -3.8693777510       -0.9766024446
 H          0.5022045210       -1.4358095566        1.6423595252
 C         -0.8048403119       -3.0568335841        1.3011167813
 C         -1.3506497956       -4.1529331329        0.4419064645
 C         -0.1922799346       -4.4246806155        1.3566467026
 H         -0.3802722510       -5.0164519502        2.2406396161
 H          0.7913525123       -4.5718009420        0.9431087813
 H         -2.3159748936       -4.5609192493        0.7055786365
 H         -1.1982109174       -4.0811107440       -0.6222157699
 H         -1.4181489782       -2.7930092645        2.1613498330
