  62
        -98.93449494
 C         -2.7199984286       -1.0158704729       -0.3689125520
 C         -2.1564387785        0.1096596697       -1.0159036366
 C         -2.8630859764        1.3898280383       -0.8314101479
 C         -3.9773683710        1.4340168130       -0.0824678566
 C         -4.8648055512        2.6181202423        0.2070006868
 C         -4.1768159533        3.9429096047        0.5682451118
 C         -2.8357768012        3.8032505005        1.3040959522
 H         -2.8523170074        4.4351965834        2.1942020259
 H         -2.6934819257        2.7745729432        1.6409292473
 C         -1.6380491003        4.2292505203        0.4512557490
 H         -1.8965322852        5.1492680429       -0.0780129072
 H         -0.7989632388        4.4555799473        1.1138585618
 C         -1.1437768106        3.1929044642       -0.5578766432
 H         -0.3854457808        3.6715833598       -1.1825547952
 H         -0.6487033670        2.3715100264       -0.0305847609
 C         -2.2241004839        2.5891129794       -1.4702065324
 H         -1.7326902881        2.2245867655       -2.3762421097
 H         -2.9629055978        3.3358342499       -1.7508915832
 H         -4.0230673342        4.5318275524       -0.3349631752
 H         -4.8759503734        4.5016789985        1.1924342622
 H         -5.5021718365        2.2983461045        1.0346492837
 H         -5.5147727110        2.7767855631       -0.6581878026
 O         -4.4885611256        0.3242224888        0.5211417843
 C         -3.8730786938       -0.9084289521        0.4122328005
 O         -4.4439293886       -1.8220460138        1.0410661319
 O         -1.1219961195        0.0692142240       -1.7328529746
 C         -2.0699664010       -2.3912844483       -0.4218021295
 C         -0.8318975309       -2.3404960768        0.4406788473
 C         -0.9212465082       -2.6526095279        1.7938459270
 C          0.1783740630       -2.5204305035        2.6220757041
 C          1.3861182746       -2.0649006527        2.1224375940
 C          1.4812486651       -1.7421447969        0.7756346693
 C          0.3830651272       -1.8973716941       -0.0592800317
 H          0.4619655446       -1.6214205068       -1.0990078916
 N          2.7007053542       -1.2567497679        0.2543335642
 S          3.3517614302        0.0758158624        1.0693758244
 O          4.0026877199       -0.3998231939        2.2651231510
 O          2.3398297939        1.0905364785        1.2659567156
 C          4.5746074035        0.6229025729       -0.1050846919
 C          4.2297384807        1.5824953160       -1.0376333237
 C          5.1746717987        1.9791197129       -1.9709180834
 C          6.4389929987        1.4092321879       -1.9579496884
 C          6.7692293149        0.4459315453       -1.0163130535
 C          5.8297444424        0.0456654474       -0.0795685746
 H          6.0416394385       -0.6930755068        0.6754426933
 H          7.7536444764        0.0066302729       -1.0093727636
 H          7.1716049882        1.7200269292       -2.6859655343
 H          4.9205635109        2.7288107329       -2.7029791741
 H          3.2366341369        2.0027090621       -1.0073076335
 H          2.5994266328       -1.0244194536       -0.7261088550
 H          2.2440060920       -1.9319053016        2.7615143015
 H          0.0937775937       -2.7658775873        3.6703192669
 H         -1.8717514208       -2.9776996779        2.1939866267
 H         -2.7842090225       -3.0776617378        0.0514305372
 C         -1.8086220338       -2.8631820379       -1.8368489628
 C         -1.4869529216       -4.3074036571       -2.0728691859
 C         -2.8098725252       -3.7534046582       -2.5067247418
 H         -2.9927918992       -3.6185633532       -3.5622219172
 H         -3.6896578980       -4.0293423132       -1.9437242434
 H         -0.7601694318       -4.5570799449       -2.8304777289
 H         -1.4681216248       -4.9595799634       -1.2127372217
 H         -1.3149191348       -2.1261958658       -2.4562530500
