  62
        -98.93433478
 C         -2.2052871680       -1.0486956280        0.6785653736
 C         -2.2635722704       -0.1223623584       -0.3909301389
 C         -3.1795573366        1.0216130047       -0.2124554517
 C         -3.8400037398        1.1716716906        0.9471684307
 C         -4.7880414277        2.2711591990        1.3566268485
 C         -5.8156366763        2.7446608697        0.3193517160
 C         -6.3229245680        1.6563492513       -0.6379784611
 H         -6.0142367711        0.6716434189       -0.2829896822
 H         -7.4143064037        1.6722491567       -0.6458509085
 C         -5.8405288009        1.8542222126       -2.0771087209
 H         -6.5026920856        1.3019265707       -2.7481279829
 H         -5.9251536941        2.9127423701       -2.3324948128
 C         -4.4144940406        1.3841691424       -2.3619444853
 H         -4.1573513679        1.6840320280       -3.3806200394
 H         -4.3723006787        0.2919673504       -2.3301302844
 C         -3.3373742156        1.9207260523       -1.4046064658
 H         -2.3769045306        1.8983069509       -1.9276090358
 H         -3.5460339254        2.9467803895       -1.1110482887
 H         -5.3937517634        3.5617260588       -0.2643315386
 H         -6.6567863199        3.1594940135        0.8773465850
 H         -4.1925572309        3.1276190986        1.6867596924
 H         -5.3078388215        1.8837604660        2.2363623641
 O         -3.6868479157        0.2997081635        1.9849140569
 C         -2.8807829607       -0.8205965071        1.8786124855
 O         -2.8388704901       -1.5187378392        2.9119252647
 O         -1.5909140261       -0.2272843885       -1.4477533282
 C         -1.3396339906       -2.2956685400        0.6135012010
 C          0.0349680686       -1.9442840275        0.0988037265
 C          0.5909966685       -2.4806255627       -1.0543763681
 C          1.8568137296       -2.0978533772       -1.4623306309
 C          2.5962546849       -1.1866966751       -0.7310757390
 C          2.0477792362       -0.6401026956        0.4219251426
 C          0.7798190961       -1.0255225620        0.8285070137
 H          0.3477449633       -0.5943158749        1.7244648546
 N          2.7958536953        0.2710415586        1.1874234880
 S          3.5996883055        1.5217252813        0.4102641573
 O          3.7825285587        2.5334461859        1.4292383938
 O          2.9166258912        1.9401466067       -0.7916659673
 C          5.1853104660        0.8190826416        0.0047196607
 C          5.9012772068        0.1988564530        1.0099744904
 C          7.1422407618       -0.3408658711        0.7119788751
 C          7.6453251188       -0.2486856378       -0.5773167571
 C          6.9159392700        0.3804729207       -1.5744251155
 C          5.6731462337        0.9215349137       -1.2833094899
 H          5.0668068670        1.4130749207       -2.0275620920
 H          7.3081757545        0.4514404695       -2.5762151605
 H          8.6114285277       -0.6699139177       -0.8064407436
 H          7.7119984451       -0.8314426476        1.4846397520
 H          5.4758258171        0.1495658929        1.9983401408
 H          2.3088730599        0.6130593862        2.0031094680
 H          3.5799256373       -0.8839697440       -1.0506838050
 H          2.2741125185       -2.5146338805       -2.3663125510
 H          0.0227572664       -3.1758946195       -1.6496985722
 H         -1.2293838968       -2.6158957762        1.6630235903
 C         -1.9824895147       -3.4596022591       -0.1262414402
 C         -3.4727421766       -3.6148630108       -0.1695745860
 C         -2.7172001070       -3.2852309050       -1.4199853159
 H         -2.6166475183       -4.0531959959       -2.1730903228
 H         -2.7905596283       -2.2876777557       -1.8226222769
 H         -3.8887306525       -4.6054157432       -0.0627728165
 H         -4.0697591038       -2.8399349099        0.2897063820
 H         -1.4096918562       -4.3745764987       -0.0110578409
