  62
        -98.94164746
 C         -0.7826976305       -1.3572832491        0.5252772506
 C         -1.2835109703       -0.8280269600       -0.6908671098
 C         -2.3751156103        0.1507559402       -0.5516153207
 C         -2.7961534804        0.5289167611        0.6671132890
 C         -3.9190610104        1.4868043914        0.9635410182
 C         -5.3082287904        0.8339475815        0.9338369486
 C         -5.8360800803        0.4921350305       -0.4603258612
 H         -5.7633788802        1.3711213900       -1.1016571919
 H         -6.8963922303        0.2552958906       -0.3519542611
 C         -5.1342159303       -0.6958744101       -1.1332389903
 H         -5.8827648503       -1.3585001504       -1.5736731998
 H         -4.5966311204       -1.2766607496       -0.3800935598
 C         -4.1604564702       -0.3120320310       -2.2479947805
 H         -4.7080414601        0.1553446884       -3.0696224109
 H         -3.6983659402       -1.2261154713       -2.6297785797
 C         -3.0368017002        0.6350617993       -1.8064317011
 H         -3.4279971401        1.6431029194       -1.6682039319
 H         -2.2785233301        0.6594010886       -2.5940422010
 H         -6.0069690004        1.5322320419        1.4002243680
 H         -5.2836028505       -0.0702820281        1.5461129693
 H         -3.8991641903        2.3174938609        0.2573080876
 H         -3.7429852504        1.8729316222        1.9695476379
 O         -2.2222121205        0.0691886220        1.8101114394
 C         -1.2289642606       -0.8932690081        1.7658174902
 O         -0.8273013807       -1.2628138473        2.8873007505
 O         -0.8779862403       -1.1508067109       -1.8353256596
 C          0.2603323894       -2.4603471791        0.5949589915
 C          1.6581989295       -1.9049503391        0.6762920912
 C          2.5650586894       -2.4207336385        1.5958035617
 C          3.8566889794       -1.9312672685        1.6629331614
 C          4.2616236395       -0.9080517992        0.8256537607
 C          3.3592840296       -0.3779180098       -0.0904056098
 C          2.0670668596       -0.8796814598       -0.1655065895
 H          1.3836952097       -0.4745557803       -0.8964646899
 N          3.7448831298        0.6675923896       -0.9397801905
 S          2.6446224999        1.8311236493       -1.4029378515
 O          1.8459147399        1.3657740685       -2.5066216812
 O          3.4628793500        2.9953994890       -1.6780818323
 C          1.6147015798        2.1692958904        0.0152363482
 C          2.1760024097        2.2278790713        1.2755672082
 C          1.3709651996        2.5573710822        2.3536178878
 C          0.0314642396        2.8505969021        2.1523982475
 C         -0.5123894203        2.8054945812        0.8792509175
 C          0.2812552198        2.4488202403       -0.1988585222
 H         -0.1115865001        2.3744578696       -1.2007372821
 H         -1.5511258602        3.0437545911        0.7213454372
 H         -0.5928651504        3.1140280628        2.9914436273
 H          1.7906075395        2.5885178229        3.3461464079
 H          3.2237944096        2.0149618013        1.4099618384
 H          4.6575935498        1.0589438996       -0.7587467507
 H          5.2669062895       -0.5187932292        0.8769889805
 H          4.5519404993       -2.3428407380        2.3782635018
 H          2.2456671393       -3.2035413280        2.2676465623
 H          0.0645734593       -2.9800614484        1.5473719419
 C          0.1094141095       -3.4935936599       -0.5141831877
 C          1.0317087096       -3.5890542509       -1.6879525976
 C          1.0759390194       -4.6364009801       -0.6185916868
 H          0.6901639594       -5.6198682402       -0.8405720461
 H          1.9264615394       -4.6331328296        0.0460235533
 H          0.5971735896       -3.8334687516       -2.6453241174
 H          1.8465982696       -2.8851317410       -1.7555777480
 H         -0.9339441005       -3.7223708500       -0.7081134476
