  62
        -98.94633433
 C          1.7905843499        0.7381975998        0.2238645291
 C          3.0848549500        0.9928931700        0.7365859488
 C          4.0109760500       -0.1471350300        0.7350925389
 C          3.5851774100       -1.3398953601        0.2798734093
 C          4.4401077700       -2.5681502302        0.1675965495
 C          5.1096412497       -2.6533670905       -1.2113437506
 C          5.8037791296       -1.3613178606       -1.6423768311
 H          6.2640092995       -1.5481194309       -2.6151100311
 H          5.0508239496       -0.5832502007       -1.7882950112
 C          6.8704860098       -0.8558016803       -0.6609627614
 H          7.1697860899       -1.6626534201        0.0089877288
 H          7.7558348897       -0.5601440805       -1.2278085317
 C          6.4458129099        0.3584538999        0.1669883383
 H          7.3344083100        0.7617508001        0.6599568680
 H          6.0584956298        1.1365354697       -0.4958051018
 C          5.4003908701        0.0892948302        1.2566692586
 H          5.7261206603       -0.7452727596        1.8807901988
 H          5.3369422902        0.9835400703        1.8836699584
 H          5.8347824598       -3.4689699705       -1.1931560705
 H          4.3451191696       -2.8944600707       -1.9535567204
 H          5.1967467301       -2.5513937699        0.9495440694
 H          3.8046226100       -3.4441090501        0.3073673599
 O          2.3257989599       -1.5522590303       -0.1801412504
 C          1.4000487699       -0.5205683903       -0.2306646205
 O          0.2888685998       -0.8498231405       -0.6854776302
 O          3.4451097401        2.1170667601        1.1784982484
 C          0.7864209199        1.8745917198        0.1648794289
 C         -0.4555891900        1.5143778499        0.9405344393
 C         -0.3218008697        1.0890816503        2.2608244094
 C         -1.4298540396        0.7486195305        3.0109101497
 C         -2.6976064497        0.8169271603        2.4581700099
 C         -2.8432510099        1.2458101199        1.1456820998
 C         -1.7275760001        1.6022456598        0.3983704195
 H         -1.8750398903        1.9255180895       -0.6179164306
 N         -4.1194168800        1.3502600497        0.5589827600
 S         -4.4510496003        0.5009262693       -0.8460108397
 O         -3.5636620105        0.9227793391       -1.8973108400
 O         -5.8633643003        0.7153240792       -1.0771779695
 C         -4.1759382901       -1.2076254205       -0.4128481093
 C         -5.2697872501       -1.9828006505       -0.0764177089
 C         -5.0686781900       -3.2932983503        0.3236975115
 C         -3.7801226399       -3.8023258903        0.3908288714
 C         -2.6943880800       -3.0092437704        0.0546654509
 C         -2.8867349901       -1.6972458805       -0.3518661794
 H         -2.0470860702       -1.0742374205       -0.6173892297
 H         -1.6873133600       -3.3924384303        0.1033188809
 H         -3.6201918798       -4.8217669702        0.7053273916
 H         -5.9129194999       -3.9116339003        0.5831635418
 H         -6.2526894701       -1.5453335805       -0.1467853288
 H         -4.8778238199        1.2131727099        1.2130882402
 H         -3.5655731196        0.5450043104        3.0396345301
 H         -1.3076904894        0.4206271108        4.0321139397
 H          0.6695174204        1.0285300605        2.6894076592
 H          1.2732768800        2.7217784699        0.6709825786
 C          0.5143624296        2.2616741094       -1.2734813511
 C          0.1012749995        3.6617142292       -1.6118386714
 C          1.4719104795        3.1762430292       -1.9741537415
 H          1.6970279893        2.9898473789       -3.0136621715
 H          2.3124741096        3.5443559694       -1.4038353818
 H         -0.6202278006        3.8066091090       -2.4020413613
 H          0.0114295996        4.3663235895       -0.7988742716
 H          0.0842059995        1.4519131192       -1.8536133108
