  62
        -98.93594450
 C         -1.9365667415       -1.5151389044        0.0567976754
 C         -2.1841271523       -0.4917424044       -0.8885223732
 C         -3.5265540123        0.1234262793       -0.8566668115
 C         -4.4206181779       -0.2660873997        0.0696427031
 C         -5.8529973366        0.1599063737        0.3142014903
 C         -6.4019364517        1.4481577676       -0.2943127458
 C         -5.7626132595        2.7316662096        0.2334974734
 H         -6.1760320503        3.5728973973       -0.3273721986
 H         -6.0474002897        2.8586247895        1.2810261210
 C         -4.2386070784        2.7881881449        0.1598045083
 H         -3.9214178701        3.7612190977        0.5452395442
 H         -3.8105426358        2.0291280959        0.8182513276
 C         -3.6454218096        2.6256883513       -1.2387117859
 H         -4.1044429461        3.3464645968       -1.9181482362
 H         -2.5800560060        2.8628466451       -1.1719083722
 C         -3.7699263108        1.2199451606       -1.8536200009
 H         -2.9958600923        1.1181171020       -2.6196999363
 H         -4.7322797177        1.0848594519       -2.3414245190
 H         -6.3384462715        1.4120781053       -1.3779162479
 H         -7.4650638980        1.4816679450       -0.0408103578
 H         -5.9657124709        0.2024172832        1.4021600607
 H         -6.4752303392       -0.6749365016       -0.0272371397
 O         -4.1280508489       -1.2411456836        0.9791236614
 C         -2.9050400295       -1.8839099753        0.9937696361
 O         -2.8003160673       -2.7592635939        1.8760647247
 O         -1.3430972814       -0.0904034918       -1.7342495190
 C         -0.6282323791       -2.2860333770        0.1379733862
 C          0.4063258026       -1.5435335896        0.9431430045
 C          1.0962637922       -2.1720248566        1.9728214945
 C          2.0596776252       -1.4895059919        2.6958583570
 C          2.3571867319       -0.1703460266        2.4045853790
 C          1.6737445438        0.4661197094        1.3761870389
 C          0.7068630924       -0.2190380058        0.6548259748
 H          0.1821450815        0.2790740025       -0.1470173154
 N          1.9740203794        1.8073632161        1.0607397957
 S          3.5641131677        2.1449993386        0.6511645598
 O          4.3813844803        2.0691281777        1.8358033009
 O          3.5271012789        3.4244822030       -0.0190583763
 C          4.0193354151        0.8540874787       -0.4905518640
 C          3.6742359112        1.0025049658       -1.8193047480
 C          3.9589386815       -0.0243307151       -2.7046224949
 C          4.5672875674       -1.1824183357       -2.2449542989
 C          4.9051384809       -1.3167891298       -0.9073361010
 C          4.6309821558       -0.2898911883       -0.0181368247
 H          4.8850536095       -0.3525275583        1.0269404688
 H          5.3774385828       -2.2186793877       -0.5531604184
 H          4.7770776645       -1.9850938074       -2.9336657801
 H          3.6968231083        0.0785857678       -3.7452491727
 H          3.2013739742        1.9180683671       -2.1372462451
 H          1.3560559465        2.1895650397        0.3585600991
 H          3.1075460256        0.3755931050        2.9533823284
 H          2.5836114003       -1.9891193681        3.4963972916
 H          0.8634919872       -3.1989808007        2.2136316321
 H         -0.8773520931       -3.2056937744        0.6901239802
 C         -0.1120381819       -2.7123663988       -1.2313532455
 C          1.0851972416       -2.1125486855       -1.8983445127
 C          1.1600052394       -3.5004003877       -1.3422437379
 H          1.1926867807       -4.3354359571       -2.0251217403
 H          1.7333732731       -3.6423590106       -0.4386956375
 H          1.0433600019       -1.9788853435       -2.9682022215
 H          1.6214160023       -1.3295081303       -1.3863606435
 H         -0.9256082613       -3.0086264177       -1.8862897003
