  62
        -98.93636784
 C         -1.3313576645       -1.1810365628        0.7092872454
 C         -1.6774586224       -0.5215241141       -0.4973952720
 C         -2.4800535705        0.7042816528       -0.3437167183
 C         -2.7578226809        1.1676067265        0.8872055988
 C         -3.6034610201        2.3718322619        1.1831095143
 C         -5.0771020589        1.9819614064        1.3653795519
 C         -5.6215436386        1.0859144718        0.2526486107
 H         -5.1136513123        0.1195253481        0.2922530101
 H         -6.6759974109        0.9028526106        0.4707493827
 C         -5.4855947455        1.6720352719       -1.1596729953
 H         -5.3201273312        2.7483468684       -1.0993598591
 H         -6.4262034623        1.5191394274       -1.6930240030
 C         -4.3830822174        1.0348961247       -2.0078499765
 H         -4.4928222814       -0.0522598923       -1.9933641800
 H         -4.5186837920        1.3635698040       -3.0415471140
 C         -2.9449646007        1.3816119154       -1.6017498121
 H         -2.2805736488        1.0242429110       -2.3934843215
 H         -2.8411923835        2.4652707896       -1.5198409651
 H         -5.6713924519        2.8957405845        1.4234583646
 H         -5.1801140857        1.4499552633        2.3141840565
 H         -3.2423178222        2.8298934096        2.1058016815
 H         -3.5064116459        3.0891706742        0.3702992921
 O         -2.3225810308        0.5585977589        2.0211082268
 C         -1.6168791646       -0.6299978892        1.9599735013
 O         -1.2917094274       -1.0874426765        3.0764869707
 H          1.4259458475       -1.3058019995        1.9015541241
 C          1.7044725835       -1.5350906244        0.8799066529
 C          0.7932882144       -2.2113423290        0.0711884704
 C          1.1596480510       -2.4640811282       -1.2441929291
 C          2.4001977337       -2.0688444396       -1.7192635425
 C          3.2976194897       -1.3989948843       -0.9100288088
 C          2.9362316715       -1.1228367114        0.4023201198
 N          3.8172068070       -0.3878492852        1.2236298044
 S          4.2854619351        1.0953421051        0.5955580301
 O          5.3951378030        0.9009291311       -0.3032812300
 O          4.5435963206        1.9389107837        1.7413844505
 C          2.8655728000        1.6793478041       -0.3148564318
 C          1.7094746165        1.9550974347        0.3880593151
 C          0.5843886153        2.3677581341       -0.3057439112
 C          0.6320961886        2.4905060867       -1.6856233597
 C          1.7994214544        2.2092808680       -2.3771221436
 C          2.9286607874        1.7977895663       -1.6878720396
 H          3.8559866628        1.5675012673       -2.1863974115
 H          1.8302864653        2.3039307977       -3.4504817114
 H         -0.2486163075        2.8042537854       -2.2224610275
 H         -0.3278381013        2.5783583919        0.2304763824
 H          1.7007738260        1.8514237842        1.4621784373
 H          3.4745922133       -0.2722238824        2.1670299075
 H          4.2594546392       -1.0722744427       -1.2706535880
 H          2.6639214385       -2.2776940082       -2.7447377819
 H          0.4751555342       -2.9394279443       -1.9222838168
 C         -0.5441907994       -2.4885921120        0.7122200910
 H         -0.3381890849       -2.6809335989        1.7768226494
 C         -1.4030714946       -3.6619787633        0.2646118232
 C         -1.8369399612       -3.9635782364       -1.1367029880
 C         -0.8686033444       -4.8722327354       -0.4407600771
 H         -1.2207412267       -5.8419657307       -0.1211560214
 H          0.1647638941       -4.8630256918       -0.7484667854
 H         -1.5017691697       -3.3159548280       -1.9290530861
 H         -2.8511049613       -4.3124338337       -1.2738537739
 H         -2.1572134670       -3.8559788834        1.0250154469
 O         -1.3484147172       -0.9177140992       -1.6404834996
