  62
        -98.94339826
 C          1.8642464603        0.2673117992       -0.2362989995
 C          2.9692085601        0.4430374489       -1.1021575897
 C          4.2833503003        0.5457726387       -0.4542008600
 C          4.3599975305        0.4892719687        0.8883080200
 C          5.6372101507        0.5356233685        1.6751618997
 C          6.1926077805       -0.8745232816        1.9191259397
 C          6.2618882500       -1.7378031317        0.6595142797
 H          6.6957237299       -2.6980733817        0.9466334696
 H          5.2470750899       -1.9358241615        0.3071876799
 C          7.0840827499       -1.1271727319       -0.4839603205
 H          7.7322447502       -0.3406010020       -0.0958470107
 H          7.7299663597       -1.9014157520       -0.9034498606
 C          6.2486992198       -0.5708112118       -1.6384820804
 H          5.5315409196       -1.3263284716       -1.9692836402
 H          6.9198994697       -0.3679480519       -2.4773393505
 C          5.4819493701        0.7244836284       -1.3431333403
 H          5.0955230700        1.1056792385       -2.2931224002
 H          6.1639723704        1.4690140483       -0.9272235204
 H          5.5500943905       -1.3785734514        2.6446229798
 H          7.1893362906       -0.7819898618        2.3542933595
 H          6.3675532307        1.1368960583        1.1370764795
 H          5.4305397710        1.0066232686        2.6376312997
 O          3.2739609007        0.3365291090        1.6882072202
 C          2.0006723305        0.2128829692        1.1511097205
 O          1.0976239407        0.0667350994        1.9953010007
 O          2.8602760899        0.5173611589       -2.3565406197
 C          0.4762912801        0.1404076894       -0.8340940192
 C         -0.4442740696        1.2155335097       -0.3109341791
 C          0.0420892307        2.5081885596       -0.1328240892
 C         -0.7765059790        3.5134746097        0.3425495509
 C         -2.1065354690        3.2589576500        0.6272687812
 C         -2.6091364993        1.9793345101        0.4326036914
 C         -1.7786773996        0.9662787099       -0.0280847188
 H         -2.1896615898       -0.0194812800       -0.1699356987
 N         -3.9526845793        1.6856326704        0.7111123816
 S         -4.8269648497        0.7366886905       -0.3549103181
 O         -4.3746823099        0.9087944104       -1.7156148282
 O         -6.2104223196        1.0792301908       -0.0990585679
 C         -4.5513494399       -0.9391607595        0.1783024219
 C         -4.4868164903       -1.9372708695       -0.7735478281
 C         -4.3296870305       -3.2510594896       -0.3596499781
 C         -4.2400352703       -3.5418325095        0.9927421519
 C         -4.3074500799       -2.5275522495        1.9360418119
 C         -4.4695239697       -1.2128310495        1.5292308719
 H         -4.5226292794       -0.4015019194        2.2357038718
 H         -4.2334123497       -2.7569789895        2.9869564819
 H         -4.1150543804       -4.5642347195        1.3130616919
 H         -4.2766105308       -4.0404191396       -1.0927575181
 H         -4.5481808605       -1.6654211896       -1.8152465481
 H         -4.4978866890        2.4694918805        1.0396534117
 H         -2.7491616287        4.0439702502        0.9964039913
 H         -0.3789313987        4.5071651897        0.4856562908
 H          1.0781771007        2.7141364093       -0.3650459794
 H          0.6061304299        0.3051134494       -1.9150550392
 C         -0.0546147501       -1.2621324704       -0.6173211590
 C         -0.9658020205       -1.8982183303       -1.6226330488
 C          0.4513938795       -2.3671771306       -1.4939022491
 H          0.6374152594       -3.3338701606       -1.0508910891
 H          1.1531394594       -2.0995270107       -2.2705340993
 H         -1.7526068905       -2.5443427501       -1.2635359886
 H         -1.2351382205       -1.3177832703       -2.4925496688
 H         -0.2134037100       -1.4860712304        0.4318216610
