  62
        -98.93310183
 C         -1.8162541070       -0.7339691538        0.3954262451
 C         -2.1961987725        0.5509771691       -0.0664608802
 C         -3.5924346928        0.7271649520       -0.5003503781
 C         -4.4346363114       -0.3207815515       -0.4412068178
 C         -5.8863147241       -0.4597980835       -0.8501533491
 C         -6.7382295565        0.7741226675       -1.1356312577
 C         -7.0311638616        1.6448976952        0.0856998683
 H         -7.7036528550        1.0962400180        0.7500344700
 H         -7.5560673422        2.5412763434       -0.2517758960
 C         -5.8129752538        2.0614762381        0.9060595800
 H         -5.3358847822        1.1754268811        1.3299937317
 H         -6.1664409760        2.6682982151        1.7442243091
 C         -4.7642618129        2.8766614036        0.1519255714
 H         -4.0396856637        3.2387338715        0.8861260416
 H         -5.2365676047        3.7465490346       -0.3085846135
 C         -3.9819690175        2.1122359373       -0.9302184216
 H         -3.0467277230        2.6489352264       -1.1136769297
 H         -4.5308709427        2.0826838113       -1.8684884845
 H         -7.6957025625        0.4093195889       -1.5175469899
 H         -6.2891676683        1.3664752390       -1.9273581248
 H         -6.3628787741       -1.0494247720       -0.0604596842
 H         -5.8822091120       -1.0920216892       -1.7450541320
 O         -4.0234753635       -1.5431948644        0.0021577784
 C         -2.7246654018       -1.7912287463        0.4297938039
 O         -2.5413960222       -2.9647184332        0.7987118388
 O         -1.3931698262        1.5215461055       -0.1145638747
 C         -0.3776720514       -0.8912795494        0.8496575016
 C          0.5218178691       -1.3727788742       -0.2595911313
 C          0.1553965090       -2.4148357516       -1.1046037344
 C          1.0213147176       -2.8507363955       -2.0913140763
 C          2.2725427299       -2.2777264427       -2.2370876830
 C          2.6489226892       -1.2364628855       -1.3970850905
 C          1.7633462516       -0.7787655600       -0.4316525792
 H          2.0497155053        0.0471869182        0.2001741091
 N          3.9065831932       -0.6308866494       -1.5131468993
 S          4.7279304731       -0.1485241600       -0.1346185305
 O          6.1183155469       -0.1188955521       -0.5335702793
 O          4.4044029574       -0.9890746833        0.9934915105
 C          4.1692878305        1.5173159160        0.1465248721
 C          4.3047723391        2.4313287324       -0.8795064448
 C          3.8794614834        3.7338381178       -0.6755677687
 C          3.3299347596        4.0985203904        0.5443486376
 C          3.2049866769        3.1702163205        1.5661604450
 C          3.6293412560        1.8657521560        1.3684730358
 H          3.5451338343        1.1119552252        2.1361060256
 H          2.7755518603        3.4547714126        2.5134395441
 H          2.9951931480        5.1118601924        0.7005972314
 H          3.9744831530        4.4597826840       -1.4669844216
 H          4.7390550355        2.1105265867       -1.8116484728
 H          4.5215034961       -1.0477490742       -2.1965227301
 H          2.9526561682       -2.6328126343       -2.9963752074
 H          0.7246693523       -3.6580982242       -2.7440936994
 H         -0.8068555947       -2.8864494377       -0.9733776375
 H         -0.0538475748        0.1303471358        1.1065076897
 C         -0.2298211484       -1.7357943732        2.1082156746
 C          0.3016947244       -3.1339689328        2.1098910749
 C          1.1275526365       -2.0224206693        2.6809252536
 H          1.2530213921       -1.9726188155        3.7523812806
 H          1.9976835447       -1.7066935656        2.1226707123
 H         -0.1586939793       -3.8445302010        2.7792282557
 H          0.6063391349       -3.5637322344        1.1686892494
 H         -1.0203014505       -1.5275904977        2.8231148954
