  62
        -98.94520216
 C          2.2590406987        0.7389630527       -0.0246480646
 C          3.2511686384        0.6534694356        0.9851694544
 C          4.1143654475       -0.5308601717        0.9417115289
 C          3.9025970797       -1.4754049591        0.0074003907
 C          4.6780018817       -2.7553532038       -0.1489501492
 C          5.9802201437       -2.6028548972       -0.9472708982
 C          7.1105856496       -1.8765419648       -0.2168969446
 H          7.2656044946       -2.3374440057        0.7590590829
 H          8.0203507988       -2.0336683498       -0.7996903256
 C          6.8880764484       -0.3672448091       -0.0467379206
 H          6.1088269670       -0.0341945351       -0.7361257089
 H          7.8019487160        0.1678483530       -0.3143079050
 C          6.5103447306        0.0620966248        1.3709551085
 H          7.3394570764       -0.1470134824        2.0504050652
 H          6.3407779604        1.1417249175        1.3680915788
 C          5.2472964377       -0.6143778534        1.9197363678
 H          5.4560308268       -1.6537535071        2.1719644624
 H          4.9418907058       -0.0877449157        2.8270799306
 H          6.3261325527       -3.6078903447       -1.1996770526
 H          5.7573820093       -2.0839846037       -1.8825030766
 H          4.0254277434       -3.4500584221       -0.6824072304
 H          4.8987206260       -3.1723933915        0.8340855940
 O          2.9137480994       -1.3772046388       -0.9199039829
 C          2.0808196157       -0.2678392690       -0.9734052267
 O          1.2478889332       -0.3093618883       -1.9003921284
 O          3.4065387495        1.5268403779        1.8789612163
 C          1.3461770861        1.9548123560       -0.0226260586
 C         -0.0350666633        1.5031081047        0.3810312080
 C         -0.3302867176        1.3436954398        1.7323912601
 C         -1.5626113086        0.8638509452        2.1332995087
 C         -2.5231492343        0.5226175868        1.1964776703
 C         -2.2313761602        0.6603110638       -0.1532450987
 C         -1.0011853987        1.1657929299       -0.5535880357
 H         -0.7839856596        1.2548658404       -1.6061415406
 N         -3.1939946706        0.3044485552       -1.1137623902
 S         -3.9904216000       -1.1620685231       -0.9340348767
 O         -3.1854331314       -2.1327657170       -0.2287490689
 O         -4.4192583053       -1.5262649373       -2.2671216000
 C         -5.4258979419       -0.7381860310        0.0334389032
 C         -6.2229782471        0.3012102806       -0.4051087663
 C         -7.3475245269        0.6387929482        0.3306941208
 C         -7.6569754028       -0.0666279401        1.4841161330
 C         -6.8493573795       -1.1102674756        1.9089847330
 C         -5.7220533619       -1.4521651765        1.1779668648
 H         -5.0612654320       -2.2517881067        1.4734124762
 H         -7.0913250891       -1.6583002044        2.8054313158
 H         -8.5326150049        0.1983593013        2.0553475742
 H         -7.9777257191        1.4499950722        0.0035459658
 H         -5.9490025636        0.8220434363       -1.3072121148
 H         -2.8682880646        0.4151431637       -2.0636436449
 H         -3.4815549415        0.1352224406        1.5010714179
 H         -1.7787217807        0.7497520291        3.1846923895
 H          0.4277353112        1.5877272579        2.4635260217
 H          1.7365711709        2.6065498337        0.7705142805
 C          1.3894129416        2.7074455642       -1.3356474619
 C          0.8411339237        4.1008096196       -1.3985462553
 C          2.3198375437        3.8728611231       -1.4797110207
 H          2.8148539910        4.0214062271       -2.4277842565
 H          2.9260601278        4.1365387695       -0.6255396356
 H          0.3185852128        4.4100312568       -2.2907709056
 H          0.4418187220        4.5181665006       -0.4867444659
 H          1.2608636103        2.0707349947       -2.2025029865
