  62
        -98.94013730
 C         -2.0288556782       -0.6458912224        0.9693848257
 C         -2.8694599036       -1.1621983186       -0.0479157246
 C         -4.2645263718       -0.6902323078       -0.0242198871
 C         -4.6587364663        0.1805858924        0.9211129220
 C         -6.0284462838        0.7863738637        1.0155151296
 C         -6.1055704690        2.1087661381        0.2396387340
 C         -5.5522923365        2.0239182194       -1.1829898449
 H         -5.6878837497        3.0051781884       -1.6431093580
 H         -4.4766486939        1.8379676872       -1.1367968205
 C         -6.2152314356        0.9520585206       -2.0594916237
 H         -6.4257519754        1.3835758022       -3.0403883624
 H         -7.1707341773        0.6568157277       -1.6243255749
 C         -5.3589391748       -0.2934794546       -2.2950454195
 H         -5.8239599803       -0.8793438863       -3.0923980238
 H         -4.3675089780        0.0053847297       -2.6443769520
 C         -5.1852386370       -1.2220743587       -1.0866315132
 H         -6.1627727237       -1.4630127214       -0.6642599129
 H         -4.7265314998       -2.1484665667       -1.4444797297
 H         -7.1483023528        2.4301637802        0.2080272803
 H         -5.5337523246        2.8638054586        0.7843602926
 H         -6.2475761102        0.9794226003        2.0670801041
 H         -6.7601757131        0.0813277425        0.6258294450
 O         -3.8247614850        0.6518246389        1.8836182737
 C         -2.4986311393        0.2601501827        1.9243150046
 O         -1.8422399348        0.7725356964        2.8543662870
 O         -2.4977859284       -1.9708372178       -0.9353414972
 C         -0.5597989582       -1.0137434782        1.1010257648
 C          0.2900368281       -0.0899067274        0.2677003488
 C          0.0353780976        0.0964764815       -1.0875822060
 C          0.8271450425        0.9438954892       -1.8408078732
 C          1.8909632213        1.6149637609       -1.2628491444
 C          2.1568370860        1.4307964274        0.0869203129
 C          1.3576809168        0.5830186309        0.8429457004
 H          1.5596857998        0.4567630547        1.8981367154
 N          3.2653522209        2.0834402946        0.6653677526
 S          4.7524952587        1.6958690438       -0.0122527750
 O          5.7340465170        2.0139694889        0.9994085207
 O          4.8917809227        2.3777144029       -1.2732748139
 C          4.6526064969       -0.0658430049       -0.2689047616
 C          4.8398447886       -0.8953247044        0.8191989611
 C          4.6602862736       -2.2598120322        0.6608874632
 C          4.2838087762       -2.7675367704       -0.5733061833
 C          4.1030210640       -1.9218213030       -1.6562606368
 C          4.2884202856       -0.5566996565       -1.5064768722
 H          4.1604903668        0.1328196390       -2.3243596648
 H          3.8109439867       -2.3200467380       -2.6145733872
 H          4.1266328674       -3.8277946140       -0.6898685552
 H          4.8042168723       -2.9215138807        1.4999700168
 H          5.1323211296       -0.4619133744        1.7625071011
 H          3.3083411851        1.9806651668        1.6695257516
 H          2.5237326278        2.2731578424       -1.8362243915
 H          0.6157190605        1.0827105436       -2.8902922372
 H         -0.7850906760       -0.4372887298       -1.5423639593
 H         -0.3143638220       -0.8245360365        2.1578697129
 C         -0.2778194089       -2.4857824309        0.8261805275
 C          0.5772845915       -2.9700145824       -0.3029286705
 C          1.0896002072       -3.0381062275        1.1018668032
 H          1.1719286168       -4.0009436350        1.5823102332
 H          1.8589571697       -2.3342905905        1.3831722721
 H          0.2790363044       -3.8832211759       -0.7942425020
 H          1.0139169296       -2.2402763142       -0.9663396497
 H         -1.1189596106       -3.1158307749        1.0942382567
