  62
        -98.94323200
 C         -2.6829736576       -0.7097741804        0.0538189085
 C         -3.1002984191        0.2934180673        0.9599547330
 C         -3.2727510347        1.6356485534        0.3941110109
 C         -3.0375503075        1.8433953551       -0.9144673841
 C         -3.1800318619        3.1531477052       -1.6412186256
 C         -1.9493603906        4.0636579736       -1.5276315415
 C         -1.7515381784        4.7212673960       -0.1612912401
 H         -0.9932207226        5.4964094923       -0.2871274205
 H         -2.6761084646        5.2136268274        0.1421001725
 C         -1.2914590887        3.7585678840        0.9423044697
 H         -0.4722495041        4.2144871098        1.5032989926
 H         -0.8914885396        2.8489980702        0.4856093251
 C         -2.3786552726        3.3838037785        1.9503658838
 H         -1.9565378171        2.6675547029        2.6601690442
 H         -2.6792752448        4.2730078623        2.5087667668
 C         -3.6309976719        2.7520116134        1.3284325197
 H         -4.2366674338        2.3296028448        2.1339292243
 H         -4.2164776857        3.5099345650        0.8091043480
 H         -2.0577458002        4.8529167907       -2.2752571047
 H         -1.0585772860        3.4837182930       -1.7836039510
 H         -3.3305847592        2.9084510126       -2.6948137644
 H         -4.0610746183        3.6822009730       -1.2766865420
 O         -2.6466220516        0.8493205638       -1.7561648787
 C         -2.4269580764       -0.4393711146       -1.2908007470
 O         -2.0234915974       -1.2366286365       -2.1589610585
 H         -0.3474482334       -0.5504505455        1.1344532692
 C         -0.0161598093       -1.4913935415        0.7095428211
 C         -0.9620647259       -2.4493906766        0.3654352185
 C         -0.5161558549       -3.6484280152       -0.1737417137
 C          0.8353943419       -3.8640877832       -0.3860319507
 C          1.7689085842       -2.8958393726       -0.0659083096
 C          1.3341456687       -1.7001717524        0.4880161641
 N          2.2815115001       -0.6943878040        0.8012371030
 S          2.9028848794        0.1489738610       -0.5300621110
 O          2.2489028116        1.4399365556       -0.6058531414
 O          2.8395978037       -0.6854993784       -1.7020262226
 C          4.6003902843        0.3679861593       -0.0336671710
 C          5.4821815637       -0.6753619781       -0.2371077578
 C          6.7943659652       -0.5371301454        0.1854010480
 C          7.1999951108        0.6360073195        0.8042962631
 C          6.3034436119        1.6750774447        1.0009379170
 C          4.9890661863        1.5417683138        0.5810283392
 H          4.2606265608        2.3264598278        0.7062860712
 H          6.6219913308        2.5869954482        1.4798335304
 H          8.2216594123        0.7417419865        1.1333464111
 H          7.4945007640       -1.3424525522        0.0318059053
 H          5.1243849953       -1.5635764461       -0.7312431220
 H          1.8934989848       -0.0060454477        1.4334216837
 H          2.8195885854       -3.0445466098       -0.2519851661
 H          1.1635735272       -4.7978558410       -0.8167602249
 H         -1.2290488136       -4.4099664030       -0.4446176545
 C         -2.4180258501       -2.1109027473        0.5758021477
 H         -2.6097610084       -2.0619729602        1.6583427434
 C         -3.3713107090       -3.1089710294       -0.0449235606
 C         -3.7604670875       -4.3478273625        0.7036493204
 C         -4.7520750758       -3.2394492425        0.5223172567
 H         -5.5764992856       -3.3874225732       -0.1587679301
 H         -4.9964998196       -2.6243872108        1.3760585494
 H         -3.3366673911       -4.4918444472        1.6858920978
 H         -3.9075781474       -5.2610011364        0.1470794104
 H         -3.2639714810       -3.1698295079       -1.1221638222
 O         -3.3090032114        0.0788052603        2.1848911524
