  62
        -98.93952872
 C         -1.8085728090       -0.6518741677       -0.4138753590
 C         -2.8408402302        0.0314861912       -1.1039158246
 C         -4.2147943322       -0.2823126221       -0.6770926708
 C         -4.4198590633       -1.1791257588        0.3035121879
 C         -5.7606959266       -1.5426725068        0.8711247244
 C         -6.1173292238       -0.6516526271        2.0692890522
 C         -5.9290900853        0.8423771777        1.8059471145
 H         -6.2390904381        1.3734608770        2.7085725324
 H         -4.8657468028        1.0477562273        1.6623019300
 C         -6.7157201121        1.3787176964        0.6017678566
 H         -7.5113118626        0.6809244960        0.3380814615
 H         -7.1913328439        2.3201077459        0.8851162105
 C         -5.8636676078        1.6654021627       -0.6360423773
 H         -5.0123444627        2.2919605845       -0.3577047241
 H         -6.4717399615        2.2369917442       -1.3424235374
 C         -5.3331970069        0.4339251689       -1.3810887042
 H         -6.1568196175       -0.2508240691       -1.5928033330
 H         -4.9170272183        0.7763444837       -2.3331593589
 H         -7.1548495745       -0.8458977391        2.3472556257
 H         -5.4811091105       -0.9330718168        2.9115792274
 H         -6.5169893818       -1.4454332818        0.0946521681
 H         -5.7234488339       -2.5821569312        1.2012356156
 O         -3.4070586086       -1.8302838638        0.9294822489
 C         -2.0885413331       -1.5807092690        0.5930294567
 O         -1.2609741468       -2.2462504954        1.2480255362
 H          2.2086981707       -0.0990665103        0.0323021218
 C          1.6156249552        0.7821672984        0.2189772529
 C          0.2622230683        0.7799680158       -0.0935967229
 C         -0.4809048510        1.9237923337        0.1682262687
 C          0.1171138829        3.0359305328        0.7341956147
 C          1.4668945506        3.0364085116        1.0334676975
 C          2.2239188874        1.9011500619        0.7680322827
 N          3.5920289091        1.8591290282        1.0740679875
 S          4.6641613848        1.1837506109       -0.0219734025
 O          5.9507150905        1.7360465733        0.3444176033
 O          4.2409622074        1.4060972611       -1.3840408291
 C          4.6555484477       -0.5563850237        0.3509642667
 C          4.5841728873       -1.4681027942       -0.6837926876
 C          4.6007737660       -2.8220512355       -0.3874730857
 C          4.6924032283       -3.2376708617        0.9319471384
 C          4.7704456772       -2.3091363588        1.9591528828
 C          4.7544453586       -0.9542041473        1.6696210123
 H          4.8118353187       -0.2048009401        2.4412381035
 H          4.8410266812       -2.6379176082        2.9834742579
 H          4.7018020730       -4.2917308495        1.1604772152
 H          4.5392855254       -3.5452442770       -1.1851178050
 H          4.5062841197       -1.0995983500       -1.6947055112
 H          3.9616457126        2.7091998978        1.4748761564
 H          1.9323041635        3.9072339980        1.4699236735
 H         -0.4751335488        3.9159220831        0.9358560356
 H         -1.5296896705        1.9454386738       -0.0825229727
 C         -0.3362044211       -0.4582052812       -0.7234090351
 H          0.1743779179       -1.3266003085       -0.2834466673
 C         -0.0498727779       -0.4477287109       -2.2152773464
 C          1.2400231381       -1.0062040232       -2.7305315843
 C         -0.0439260551       -1.7404885708       -2.9721391888
 H         -0.4579189018       -1.7548952978       -3.9689392295
 H         -0.2245793330       -2.6456298069       -2.4102343581
 H          1.9297675482       -1.4255045350       -2.0137988834
 H          1.7205429614       -0.5082505943       -3.5588174440
 H         -0.4614936509        0.4183178026       -2.7180240879
 O         -2.6507418335        0.8706055364       -2.0235909321
