  62
        -98.92999723
 C         -1.7483856047       -0.5442574679        0.1687908014
 C         -2.5533938560        0.3021890966        0.9825631721
 C         -4.0159758791        0.2127922235        0.8407906218
 C         -4.5357270784       -0.6523624423       -0.0483216903
 C         -5.9681045166       -1.0112812348       -0.3831666193
 C         -7.1242006969       -0.1541830829        0.1242350300
 C         -7.2079859179        1.2374316817       -0.5027273790
 H         -7.5098248933        1.1287675894       -1.5475488392
 H         -7.9902941015        1.7991637456        0.0122599614
 C         -5.9156901490        2.0500608704       -0.4809409744
 H         -5.1482319818        1.5359335138       -1.0631446768
 H         -6.1117759492        3.0034069645       -0.9792812164
 C         -5.3599996025        2.3594040796        0.9076709184
 H         -6.1268041104        2.8513619704        1.5094923489
 H         -4.5317888985        3.0624740850        0.7823071686
 C         -4.8243560307        1.1495949887        1.6916745710
 H         -4.1477671425        1.5223891608        2.4661988644
 H         -5.6294047257        0.6162598927        2.1918675996
 H         -7.0933381542       -0.0849286282        1.2076777456
 H         -8.0439517870       -0.6869536411       -0.1322270740
 H         -6.1085241881       -2.0344905054       -0.0172811904
 H         -6.0153750960       -1.0670937486       -1.4754380077
 O         -3.7329553371       -1.4367033041       -0.8183418597
 C         -2.3464253061       -1.4078790898       -0.7510341160
 O         -1.8184440676       -2.1866973290       -1.5663740818
 O         -2.0636635070        1.1088482481        1.8199393000
 C         -0.2554050978       -0.4238273857        0.4098841305
 C          0.5720174352        0.1820110389       -0.7018552537
 C          0.3126694871       -0.0013111556       -2.0537877121
 C          1.1453621114        0.5552141237       -3.0097079984
 C          2.2645101084        1.2788128309       -2.6424452141
 C          2.5394822796        1.4617935704       -1.2920649614
 C          1.6887507927        0.9260965999       -0.3369639570
 H          1.8987439333        1.1078788101        0.7065448322
 N          3.6740763176        2.1747428895       -0.8794472021
 S          4.5045702650        1.6798362839        0.4810739867
 O          3.8478479474        2.1598535827        1.6711161430
 O          5.8552204302        2.1570042005        0.2745940891
 C          4.4774741149       -0.1057512839        0.4525741190
 C          4.1193225641       -0.7912484620        1.5951061057
 C          4.1150073762       -2.1772121214        1.5751540678
 C          4.4612785409       -2.8507921879        0.4146734235
 C          4.8205622488       -2.1483197319       -0.7253120068
 C          4.8341204347       -0.7634216932       -0.7081638090
 H          5.1185007301       -0.1950908603       -1.5783977474
 H          5.0883165036       -2.6757450167       -1.6265018153
 H          4.4529707101       -3.9294507464        0.3994352578
 H          3.8362782828       -2.7243535762        2.4618460664
 H          3.8459356078       -0.2282667099        2.4737738109
 H          4.2932739674        2.4647009703       -1.6216947561
 H          2.9167629893        1.7034069825       -3.3902100081
 H          0.9237257867        0.4096697742       -4.0561175799
 H         -0.5346163231       -0.5919863763       -2.3590140279
 H         -0.2054113332        0.2898329610        1.2481643705
 C          0.4790934486       -1.6727173013        0.9002406455
 C         -0.2171185545       -2.9104252979        1.3725306099
 C          0.5930536847       -2.9396550917        0.1114742724
 H          1.5420789488       -3.4548511498        0.1187005128
 H          0.0546564659       -2.9996429689       -0.8197375918
 H          0.1594974888       -3.4091172476        2.2532511103
 H         -1.2926689391       -2.9490174349        1.2745524629
 H          1.3707164885       -1.3936840327        1.4547014766
