  62
        -98.93860593
 C          2.3744242398        0.5861165073        0.5582136973
 C          2.4544664665       -0.1740309773       -0.6289793416
 C          2.5329982927       -1.6410967548       -0.4790873780
 C          2.4662399098       -2.1710655484        0.7562004302
 C          2.5006174166       -3.6215452131        1.1646353356
 C          1.1870663737       -4.3591104489        0.8746021235
 C          0.6370490373       -4.1489119243       -0.5329041908
 H         -0.3095406041       -4.6919530775       -0.6004444591
 H          0.4054328176       -3.0907572871       -0.6730478427
 C          1.5403785499       -4.6406242347       -1.6627495827
 H          1.7824304822       -5.6923605522       -1.4951467976
 H          0.9611978497       -4.5755734297       -2.5870885465
 C          2.8429822170       -3.8618673156       -1.8707903279
 H          3.2068953631       -4.0989175143       -2.8745762441
 H          3.6168850933       -4.1830166885       -1.1781476698
 C          2.6881164747       -2.3464370998       -1.8045263091
 H          3.5610577298       -1.8810229146       -2.2775085561
 H          1.8324555984       -2.0398208431       -2.4173021764
 H          0.4336262470       -4.0064090459        1.5840308598
 H          1.3478260717       -5.4246406914        1.0510455503
 H          2.6745299819       -3.6343594471        2.2432420062
 H          3.3352781876       -4.1270358288        0.6874306684
 O          2.3335940015       -1.3954904620        1.8733066669
 C          2.2895419394       -0.0176920079        1.8104036732
 O          2.1822950289        0.5502692222        2.9180823295
 O          2.4782677167        0.3430124700       -1.7778758235
 C          2.3172528410        2.1014118630        0.4885760009
 C          1.1211894229        2.5212981957       -0.3305324102
 C          1.1816458034        3.4343637324       -1.3743557494
 C          0.0414252657        3.7450332901       -2.0955962844
 C         -1.1723951776        3.1584194000       -1.7921954760
 C         -1.2477338357        2.2600628700       -0.7319613591
 C         -0.1071588584        1.9561085885       -0.0091095023
 H         -0.1688334846        1.2492362002        0.8067710907
 N         -2.4803880835        1.6890330585       -0.3690792812
 S         -2.5196933272        0.1633700047        0.3463533853
 O         -2.1328220348        0.2833147446        1.7305496268
 O         -1.7813403057       -0.7928182519       -0.4491614860
 C         -4.2728859625       -0.1503461588        0.2515152608
 C         -5.1011867403        0.5805374693        1.0831598037
 C         -6.4708245766        0.3881301137        1.0035374014
 C         -6.9873708050       -0.5286807862        0.0994279060
 C         -6.1440419555       -1.2572237526       -0.7254528016
 C         -4.7722276378       -1.0669085565       -0.6532495711
 H         -4.0776830420       -1.6118173959       -1.2723820563
 H         -6.5481893678       -1.9725169972       -1.4235375865
 H         -8.0537912654       -0.6783385448        0.0403242971
 H         -7.1287197207        0.9510944398        1.6456402290
 H         -4.6521921444        1.2742155214        1.7747441375
 H         -3.1761705990        1.7668183005       -1.0987637426
 H         -2.0567680732        3.3918486016       -2.3652495370
 H          0.1027903040        4.4457395288       -2.9144307936
 H          2.1224201528        3.8911521581       -1.6335046199
 H          2.1593256253        2.4451126784        1.5219716865
 C          3.6315696962        2.6574662336       -0.0174467506
 C          4.0759005880        4.0286426584        0.3919083461
 C          4.7653411677        2.8201212294        0.9481175708
 H          5.7658580072        2.5937255344        0.6116234041
 H          4.5794948407        2.5492602165        1.9776154381
 H          4.6080413603        4.6347870149       -0.3254548757
 H          3.4267758142        4.5873747408        1.0490077503
 H          3.8706594568        2.3140641609       -1.0173060919
