  62
        -98.93137582
 C          2.2639321305        0.6830415273        0.1464189220
 C          3.5098286670        1.1031384049        0.6740992136
 C          4.7200495919        0.6237069135       -0.0156301913
 C          4.5831849174       -0.1902000965       -1.0763678248
 C          5.6752438380       -0.8295869924       -1.8887856898
 C          6.0004813058       -2.2343880948       -1.3533341029
 C          7.0409511702       -2.2727922255       -0.2346625818
 H          7.0804470160       -3.2993048054        0.1368546556
 H          8.0229349050       -2.0367067143       -0.6499104857
 C          6.7700623889       -1.3336010748        0.9435474951
 H          5.7119026406       -1.3720004764        1.2088400052
 H          7.3320147476       -1.7036484505        1.8033145622
 C          7.1863268259        0.1184942813        0.6656545064
 H          7.7956236001        0.1482247468       -0.2374154718
 H          7.8213232291        0.4749143960        1.4793705044
 C          6.0278068914        1.1185140465        0.5399126102
 H          6.3586181314        1.9747604633       -0.0576700641
 H          5.7755551103        1.5098870317        1.5305880335
 H          6.3689514864       -2.8468351276       -2.1787492965
 H          5.0667985597       -2.6834398081       -1.0048591666
 H          5.2892320420       -0.9260299667       -2.9056954939
 H          6.5601702293       -0.2004761750       -1.9078922314
 O          3.3674924082       -0.5989576186       -1.5314202530
 C          2.1817276907       -0.1889674906       -0.9397471673
 O          1.1635679848       -0.6701664373       -1.4696751560
 O          3.6082534767        1.8431790376        1.6899707765
 C          1.0070418722        1.1745348165        0.8399092205
 C          0.0362605791        0.0418704756        1.0567620265
 C          0.4102669541       -1.0119988512        1.8874017235
 C         -0.4498080213       -2.0663764808        2.1230337289
 C         -1.7110006640       -2.0829003986        1.5533084719
 C         -2.0908318327       -1.0403578929        0.7175067501
 C         -1.2180487700        0.0103296057        0.4707076745
 H         -1.5333763498        0.7925261828       -0.1993297302
 N         -3.3531831982       -1.0352344686        0.1037913033
 S         -4.1313353788        0.4464138587       -0.1094758332
 O         -3.7044956619        1.0332946870       -1.3546059053
 O         -3.9671461337        1.2656496793        1.0708170560
 C         -5.8250286430       -0.0955424598       -0.2507316806
 C         -6.2713693071       -0.5732275690       -1.4685861168
 C         -7.5769652357       -1.0262500909       -1.5721878773
 C         -8.4095611789       -0.9950581642       -0.4631510827
 C         -7.9481739872       -0.5109820885        0.7517294100
 C         -6.6431176541       -0.0574905139        0.8626863860
 H         -6.2427963039        0.3348521316        1.7836565928
 H         -8.5987488940       -0.4846763389        1.6109950891
 H         -9.4253048719       -1.3478164517       -0.5471482740
 H         -7.9400023630       -1.4005071691       -2.5157504211
 H         -5.5906353221       -0.5699904523       -2.3040826911
 H         -3.9757623465       -1.7425869077        0.4689233322
 H         -2.3884642215       -2.9016787547        1.7431376143
 H         -0.1422973173       -2.8778078059        2.7656535837
 H          1.3922366478       -0.9938102938        2.3413729273
 H          1.3552592373        1.5120110293        1.8313651544
 C          0.3635825565        2.3827339943        0.1762198275
 C          1.1858687546        3.3973913276       -0.5583201913
 C          0.2411772934        2.5116159188       -1.3112337265
 H         -0.6666845716        2.9395839661       -1.7121848244
 H          0.6474551300        1.7166764141       -1.9171750479
 H          0.9347629699        4.4410915661       -0.4438937005
 H          2.2454651671        3.2087448194       -0.6519600261
 H         -0.4662524610        2.7689099658        0.7625308406
