  62
        -98.94740098
 C          2.5329682599        0.2240609777        0.0025123705
 C          2.2674549612        1.2559010481       -0.9275532495
 C          1.6958044224        2.4873014686       -0.3732210995
 C          1.4628840122        2.5774571588        0.9489910104
 C          0.9050024033        3.7741933593        1.6712631604
 C         -0.6271797666        3.8543391310        1.6428896601
 C         -1.2260630859        4.2796027017        0.3018105900
 H         -2.2726146957        4.5330052527        0.4817386798
 H         -0.7260418449        5.1821418312       -0.0519518898
 C         -1.1640874668        3.1939748417       -0.7809778900
 H         -0.9973409979        2.2192827915       -0.3158490601
 H         -2.1275648968        3.1279988927       -1.2931644602
 C         -0.1021911864        3.4164140406       -1.8582068198
 H         -0.3572352353        4.3001493009       -2.4486031498
 H         -0.1187749572        2.5478680007       -2.5224998999
 C          1.3265667037        3.5847141091       -1.3254688695
 H          2.0146609338        3.5321389484       -2.1733051594
 H          1.4356463546        4.5572414489       -0.8450330795
 H         -1.0302111777        2.8778078614        1.9229316400
 H         -0.9318808160        4.5777178312        2.4029654701
 H          1.2271533830        3.6847647789        2.7109952504
 H          1.3284847344        4.6875191689        1.2518314505
 O          1.7455932310        1.5677725885        1.8134421904
 C          2.2405602098        0.3559291580        1.3600684104
 O          2.3994535787       -0.4992822523        2.2533579804
 H          0.4372010889       -0.9266070400       -0.9472565700
 C          0.6732220878       -1.8605077703       -0.4572513700
 C          1.9977655175       -2.1645292417       -0.1690317598
 C          2.2817855861       -3.3817241520        0.4347315702
 C          1.2548680151       -4.2448381610        0.7791447100
 C         -0.0660082545       -3.9079561996        0.5493616397
 C         -0.3580003731       -2.7010033092       -0.0777108303
 N         -1.6848721627       -2.3179685078       -0.3431288405
 S         -2.0310254509       -0.6624705975       -0.3385101205
 O         -1.7202713501       -0.1333940577       -1.6426542504
 O         -1.4089524005       -0.0159686682        0.7949588797
 C         -3.8010908010       -0.7077244456       -0.1267971608
 C         -4.3430215910       -0.4765052251        1.1229869191
 C         -5.7185247111       -0.5456585337        1.2810439789
 C         -6.5236471612       -0.8472310928        0.1930268287
 C         -5.9652912912       -1.0750802533       -1.0562187312
 C         -4.5911810511       -1.0051403547       -1.2213532610
 H         -4.1119856911       -1.1634594552       -2.1733144609
 H         -6.5944750713       -1.3058592226       -1.9005807214
 H         -7.5933322613       -0.9019362817        0.3191545085
 H         -6.1547481211       -0.3647287933        2.2501738688
 H         -3.6766205709       -0.2400824459        1.9372839393
 H         -2.3614688733       -2.8467551371        0.1903292594
 H         -0.8650070553       -4.5673258387        0.8524694495
 H          1.4870569540       -5.1845083312        1.2571478599
 H          3.3031495357       -3.6464909431        0.6540806504
 C          3.0344249886       -1.1187834128       -0.5009998695
 H          3.0950329089       -1.0198302627       -1.5954435795
 C          4.4120093382       -1.4293744542        0.0428531607
 C          5.3463501874       -2.3112083952       -0.7291658591
 C          5.6100253889       -0.8392599754       -0.6364696390
 H          6.4317710392       -0.4975200463       -0.0254600388
 H          5.4321399097       -0.2290498152       -1.5099991290
 H          4.9967585872       -2.7040295947       -1.6718917892
 H          5.9926346266       -2.9811694659       -0.1826198091
 H          4.4265663379       -1.4852186143        1.1254906007
 O          2.5042404713        1.1538055379       -2.1632398095
