  62
        -98.94419406
 C          1.6895956281        1.3034887394        0.2590209845
 C          1.2959643959        0.2320226643       -0.5725106887
 C          1.8561466802       -1.0907704493       -0.2528830058
 C          2.6887673479       -1.2092702487        0.7954984944
 C          3.3966401764       -2.4474964255        1.2730704830
 C          4.7860983999       -2.5742224859        0.6245321609
 C          4.8083767907       -3.3081260647       -0.7155431383
 H          5.8215551686       -3.2234013188       -1.1150305821
 H          4.6096366609       -4.3683729156       -0.5461101008
 C          3.8215685784       -2.7849593889       -1.7618147643
 H          3.8298381606       -1.6936092427       -1.7589656445
 H          4.1700881395       -3.1104731057       -2.7437014927
 C          2.3880085251       -3.2938648223       -1.5482022909
 H          2.3977511212       -4.0997288862       -0.8148412853
 H          2.0139078590       -3.7264380097       -2.4784693246
 C          1.3774443105       -2.2205582424       -1.1232703735
 H          0.9725832609       -1.7317321096       -2.0153918559
 H          0.5293805728       -2.6968954170       -0.6169695069
 H          5.1900768601       -1.5662199045        0.5002014397
 H          5.4448826201       -3.1072876030        1.3130638636
 H          3.5232651264       -2.3321188251        2.3518426820
 H          2.7906264983       -3.3299209552        1.0896117035
 O          3.0531987791       -0.1464332267        1.5668220337
 C          2.5485841746        1.1201535351        1.3395553467
 O          2.9351656586        1.9871441401        2.1517126028
 H         -0.4416493514        1.1774852623        1.6124197155
 C         -1.0327321928        1.7498157951        0.9118584410
 C         -0.4058240182        2.5982154231        0.0080187863
 C         -1.1970732120        3.3304313277       -0.8687442292
 C         -2.5741404507        3.1888731549       -0.8579026937
 C         -3.1884189772        2.3011594303        0.0064374111
 C         -2.4060498052        1.5731444037        0.8950185450
 N         -2.9754352329        0.6375043995        1.7851636665
 S         -2.5442732933       -0.9701973586        1.5762335743
 O         -3.3138058955       -1.6932856015        2.5671213856
 O         -1.1135949559       -1.1153128197        1.6502735928
 C         -3.1515594469       -1.3825505497       -0.0504939007
 C         -2.4345672715       -0.9932047780       -1.1638917141
 C         -2.9608432435       -1.2610982912       -2.4190107214
 C         -4.1831701962       -1.9031608044       -2.5397911586
 C         -4.8902984324       -2.2866884839       -1.4098853737
 C         -4.3737079409       -2.0202916115       -0.1526724495
 H         -4.8843150981       -2.3021535917        0.7541217374
 H         -5.8400883420       -2.7879797466       -1.5045148064
 H         -4.5856301144       -2.1058340749       -3.5197926935
 H         -2.4044826717       -0.9593765206       -3.2919110259
 H         -1.4821806468       -0.4979050190       -1.0520410784
 H         -3.9832077113        0.6982656973        1.8452332717
 H         -4.2598535615        2.1686945639       -0.0043639449
 H         -3.1750754249        3.7633086177       -1.5461501296
 H         -0.7335812192        4.0078474515       -1.5672797731
 C          1.1018841902        2.6839681667        0.0312923233
 H          1.4027869411        3.2920147746        0.8975571040
 C          1.6834494788        3.3005439466       -1.2252890508
 C          1.8774096296        4.7831212973       -1.3254060212
 C          3.0635855405        3.8808616924       -1.1706826793
 H          3.7186064564        3.7358780499       -2.0166625289
 H          3.5710835434        3.8562421300       -0.2169578777
 H          1.7222726036        5.2606560718       -2.2811634919
 H          1.5873539926        5.3845470433       -0.4771176819
 H          1.4041603507        2.7564977827       -2.1203446923
 O          0.5060858577        0.3742619002       -1.5443567391
