  62
        -98.93337991
 C         -2.4361399849       -1.5657973623        0.2297023610
 C         -2.7326034392       -0.6653764629       -0.8219212829
 C         -3.6735981854        0.4187765488       -0.4951732805
 C         -4.1895810000        0.5139227252        0.7422560311
 C         -5.1875263255        1.5309870878        1.2288055760
 C         -4.7019584867        2.9929656187        1.2694143591
 C         -5.0411223916        3.8072025985        0.0146781478
 H         -5.9069124055        3.3572038838       -0.4726305367
 H         -5.3397013654        4.8123186292        0.3191493205
 C         -3.9082219682        3.9688773295       -1.0035028726
 H         -3.2091427809        4.7272669181       -0.6431782865
 H         -4.3448090086        4.3397901567       -1.9333799180
 C         -3.0961639231        2.7092789336       -1.3072062683
 H         -2.4098818144        2.5064636269       -0.4801201821
 H         -2.4703912710        2.9102160028       -2.1796211714
 C         -3.9403984698        1.4443102312       -1.5587049257
 H         -5.0001818480        1.6907444090       -1.5975013892
 H         -3.6555384209        0.9909891097       -2.5102980939
 H         -3.6289138126        3.0149958526        1.4604215556
 H         -5.1908213167        3.4646248495        2.1233461643
 H         -5.4527909407        1.2158440252        2.2399730964
 H         -6.0860450378        1.4649102278        0.6112017179
 O         -3.8756408160       -0.3699525684        1.7283181779
 C         -2.9909917192       -1.4092461004        1.5036453976
 O         -2.7876586732       -2.1297621037        2.5011939528
 O         -2.2518548274       -0.7410911387       -1.9830041079
 C         -1.4830068782       -2.7423360947        0.0792397886
 C         -0.0622229435       -2.2913917824        0.3019223106
 C          0.7395356490       -2.8851672955        1.2688280097
 C          2.0310637631       -2.4355705153        1.4841918979
 C          2.5478824237       -1.3891597290        0.7413650536
 C          1.7517908618       -0.7847652343       -0.2230068471
 C          0.4595023731       -1.2387798374       -0.4384645195
 H         -0.1565469230       -0.7665905609       -1.1898959554
 N          2.2662724599        0.2807799038       -0.9862595520
 S          2.8918378338        1.5903835386       -0.1389713422
 O          2.2629477107        1.7315508580        1.1550019541
 O          2.7780210322        2.7190930002       -1.0365998896
 C          4.6127979364        1.1765581350        0.0551734799
 C          5.1843429143        1.1685048790        1.3123284479
 C          6.5275554884        0.8477267174        1.4353995423
 C          7.2708140680        0.5432569545        0.3053096598
 C          6.6820840558        0.5583970694       -0.9505899507
 C          5.3403890508        0.8790998003       -1.0807204149
 H          4.8448813328        0.9045268659       -2.0368470293
 H          7.2632847769        0.3208517414       -1.8269538010
 H          8.3151180876        0.2923292218        0.4039426164
 H          6.9867512199        0.8356321946        2.4108341668
 H          4.5648644618        1.4049042350        2.1628876434
 H          1.6230966867        0.5998525480       -1.6977546930
 H          3.5513759399       -1.0327104309        0.9076246898
 H          2.6419695909       -2.9039809219        2.2406272389
 H          0.3369737694       -3.6903680338        1.8658850712
 H         -1.7454173186       -3.4270022083        0.9006995778
 C         -1.6812122295       -3.5028396303       -1.2259507561
 C         -0.6546740483       -3.5785072657       -2.3125103544
 C         -0.9290339919       -4.7794598865       -1.4617299878
 H         -1.4528351847       -5.6178918939       -1.8949366359
 H         -0.1818027923       -5.0526669452       -0.7317999196
 H         -1.0087939276       -3.5692295469       -3.3321470743
 H          0.2804924068       -3.0596966030       -2.1733510294
 H         -2.7169856122       -3.4836937665       -1.5490577345
