  62
        -98.93781364
 C          2.3323414351        1.3699553766        0.0207324490
 C          2.9938710233        0.5357312609        0.9522135833
 C          3.7357270467       -0.6005659592        0.3913569619
 C          3.7438654879       -0.7965643958       -0.9396353582
 C          4.4919875102       -1.8693443723       -1.6862030651
 C          4.0375827690       -3.3201577462       -1.4342926760
 C          4.8257180863       -4.0487164341       -0.3385640286
 H          4.9956166607       -5.0793773193       -0.6562136943
 H          5.8076560446       -3.5834084404       -0.2448026653
 C          4.1558798557       -4.1115139492        1.0373751977
 H          4.9100506294       -4.4235146304        1.7629918584
 H          3.3777042777       -4.8782446191        1.0208295708
 C          3.5082257896       -2.8150040656        1.5241368421
 H          3.2489421767       -2.9383886667        2.5777757820
 H          2.5660706637       -2.6548959688        0.9924254535
 C          4.3805176433       -1.5555794587        1.3534563270
 H          4.4655011584       -1.0298678688        2.3066285122
 H          5.3807545510       -1.8233558608        1.0169732800
 H          2.9700905988       -3.3343654102       -1.2130485168
 H          4.1780981412       -3.8616841753       -2.3711895793
 H          4.3566319746       -1.6335706389       -2.7436868294
 H          5.5560464475       -1.7787139281       -1.4563645052
 O          3.0759214203        0.0181611440       -1.8009617762
 C          2.3345051539        1.0998767572       -1.3480722580
 O          1.7477959162        1.7293256586       -2.2476263302
 O          2.9662499821        0.7315427183        2.1981684407
 C          1.5244833893        2.5481576195        0.5388541856
 C          0.0616513076        2.2779387901        0.2847905985
 C         -0.7647418762        3.1050225376       -0.4625345876
 C         -2.0848257715        2.7528528891       -0.6893304572
 C         -2.6088430956        1.5819194652       -0.1736159667
 C         -1.7918879944        0.7509462485        0.5827471618
 C         -0.4725458568        1.1060433648        0.8085559824
 H          0.1662116233        0.4546819091        1.3932217389
 N         -2.3166760350       -0.4413405114        1.1204885656
 S         -2.9890745697       -1.5315671165        0.0303031928
 O         -2.8769548409       -2.8250655270        0.6699668437
 O         -2.3906188611       -1.4097792320       -1.2796393124
 C         -4.7042033604       -1.0588809653       -0.0264790708
 C         -5.4121567974       -1.0417974434        1.1595224426
 C         -6.7486245269       -0.6768469355        1.1351018604
 C         -7.3514680472       -0.3401500345       -0.0679650676
 C         -6.6276291530       -0.3657126114       -1.2502336981
 C         -5.2896198417       -0.7286217563       -1.2327697193
 H         -4.6844141779       -0.7563012037       -2.1250217666
 H         -7.0977540183       -0.1038730868       -2.1844917000
 H         -8.3917584565       -0.0559064839       -0.0844473676
 H         -7.3146997177       -0.6553955648        2.0523114640
 H         -4.9059407707       -1.3139969397        2.0705495977
 H         -1.6652051449       -0.9209932562        1.7261710509
 H         -3.6342364104        1.3034068204       -0.3545329322
 H         -2.7143457066        3.4005465165       -1.2801568644
 H         -0.3723930703        4.0168449777       -0.8810847766
 H          1.6849832066        2.5532867618        1.6269819895
 C          2.0228938294        3.8559127954       -0.0345995602
 C          1.7675133495        5.1371295235        0.6998007609
 C          3.1513460163        4.5648709264        0.6503754564
 H          3.8943125095        5.0576790045        0.0415353208
 H          3.5521023590        4.1130060918        1.5460667895
 H          1.5611216500        6.0279046890        0.1263800988
 H          1.2279298830        5.0775856962        1.6327567128
 H          2.0082617727        3.8720210015       -1.1180470385
