  62
        -98.94008332
 C         -2.0132817234       -1.4011659527       -0.2759437711
 C         -1.7500315211       -0.0181479718       -0.4323944384
 C         -2.9331064229        0.8491860658       -0.5531535889
 C         -4.1627271637        0.3074519983       -0.5014228899
 C         -5.4463461424        1.0826664751       -0.5571680740
 C         -5.9239313955        1.4670053433        0.8502475150
 C         -4.8394548743        2.1051592348        1.7186448836
 H         -5.2987972102        2.3619855460        2.6757418615
 H         -4.0640173905        1.3635629250        1.9247529947
 C         -4.1924319862        3.3571353413        1.1099654027
 H         -4.8300249319        3.7568214704        0.3204444573
 H         -4.1170330307        4.1235347893        1.8843028614
 C         -2.7814378757        3.1390688984        0.5605310969
 H         -2.1628506329        2.6530523460        1.3197578381
 H         -2.3403787073        4.1191296152        0.3596528607
 C         -2.6892690225        2.3211068405       -0.7335931398
 H         -1.6656968623        2.4131637839       -1.1078328034
 H         -3.3679123117        2.7367563151       -1.4811653123
 H         -6.2785817806        0.5648124018        1.3542191160
 H         -6.7662182561        2.1544943887        0.7534491275
 H         -5.2993959018        1.9773436013       -1.1590414424
 H         -6.2058464938        0.4579091956       -1.0303659896
 O         -4.3768575474       -1.0231312503       -0.3369845085
 C         -3.3150697068       -1.9030018520       -0.2003408904
 O         -3.6534138937       -3.0888412091       -0.0143666946
 O         -0.5972349989        0.4802490804       -0.4717479126
 C         -0.8889941588       -2.4105403255       -0.1143802558
 C          0.1482779065       -1.8723872415        0.8414755437
 C         -0.2659433889       -1.4600647753        2.1059897255
 C          0.6324939338       -0.9292499213        3.0104273530
 C          1.9727006263       -0.8139851227        2.6831273665
 C          2.3989633633       -1.2332956874        1.4314354939
 C          1.4919122320       -1.7629467539        0.5203121435
 H          1.8417504388       -2.0625839344       -0.4553079488
 N          3.7680019695       -1.1330925752        1.1049948898
 S          4.4621884663        0.3838576344        0.9614532904
 O          5.8864470420        0.1542816250        0.8643120833
 O          4.0211577002        1.2076412188        2.0572580317
 C          3.8715673308        1.0349521869       -0.5925666708
 C          2.5276603520        1.3156045157       -0.7358567258
 C          2.0704508829        1.7781119317       -1.9595428419
 C          2.9557064506        1.9582890367       -3.0104418940
 C          4.3038637250        1.6753122493       -2.8483948883
 C          4.7672366124        1.2035325313       -1.6311568120
 H          5.8045825752        0.9639923572       -1.4613860261
 H          4.9918622575        1.8162294529       -3.6665905442
 H          2.5920913258        2.3188651723       -3.9599605282
 H          1.0166197871        1.9748732109       -2.0742896592
 H          1.8418701811        1.1619106175        0.0814921276
 H          4.0314826917       -1.6904515626        0.3040260483
 H          2.6847782126       -0.3870374909        3.3698719881
 H          0.2897301710       -0.6042252781        3.9816055118
 H         -1.3132847819       -1.5474051788        2.3645911453
 H         -1.3604647792       -3.2860466936        0.3622416409
 C         -0.3004577087       -2.8978208683       -1.4310401698
 C         -1.0869491305       -2.8341938060       -2.7053841177
 C          0.1068565957       -1.9493564864       -2.5178420089
 H          0.9997962282       -2.1689218570       -3.0853202658
 H         -0.0523455677       -0.8975043389       -2.3427519484
 H         -1.0131236832       -3.6640198169       -3.3922985977
 H         -2.0697895819       -2.3872473960       -2.6677718464
 H          0.3162039773       -3.7815258349       -1.2964325246
