  62
        -98.93689939
 C         -1.6115241190       -1.2203589094        0.0420034371
 C         -2.7790316874       -0.9590911401        0.7930589434
 C         -3.6325205800        0.1524772684        0.3323829654
 C         -3.2399091603        0.8788309555       -0.7296187218
 C         -3.9333970208        2.0456633688       -1.3868406903
 C         -4.5493597347        3.1021146315       -0.4567837979
 C         -6.0791317999        3.0860763955       -0.4450530304
 H         -6.4363120141        4.0737231601       -0.1448243192
 H         -6.4324387306        2.9080419032       -1.4628731752
 C         -6.7116339929        2.0613579328        0.4951268061
 H         -6.5678984760        2.3823234467        1.5292613723
 H         -7.7872336414        2.0568104432        0.3035543000
 C         -6.1826907702        0.6326554246        0.3554452403
 H         -6.0417866966        0.3789156899       -0.6946980277
 H         -6.9439565735       -0.0451072138        0.7475391411
 C         -4.8840629860        0.3787836704        1.1357043194
 H         -4.7088599578        1.1936035523        1.8444311556
 H         -4.9904996245       -0.5263724135        1.7419374931
 H         -4.1613585689        2.9807789513        0.5535407680
 H         -4.2268212825        4.0833726025       -0.8092209489
 H         -3.1713890065        2.5082414958       -2.0184963395
 H         -4.6997590705        1.6551563001       -2.0612737424
 O         -2.0873955824        0.6091042253       -1.4077508865
 C         -1.2567110692       -0.4470309405       -1.0627673048
 O         -0.2573578286       -0.5718951062       -1.7918007114
 H          0.1237494097        0.0038493168        1.3634812150
 C          0.9500741644       -0.6771024118        1.2000773736
 C          0.6958726952       -1.9532895743        0.7173222499
 C          1.7748141693       -2.8077658367        0.5183659372
 C          3.0652484217       -2.3932197971        0.7980412881
 C          3.3140717102       -1.1151198907        1.2628693422
 C          2.2450112832       -0.2487045180        1.4511176597
 N          2.4898350914        1.0691474975        1.8723864129
 S          3.7562991860        1.8881229650        1.1411164688
 O          4.9759412178        1.6177914967        1.8630190132
 O          3.3444054731        3.2752244460        1.1153326729
 C          3.8940561030        1.2368013173       -0.5156847198
 C          5.1290289557        0.8235396888       -0.9744115369
 C          5.2291540049        0.3021262541       -2.2539948485
 C          4.0958675798        0.1911498494       -3.0450288130
 C          2.8630310843        0.6121482459       -2.5712011305
 C          2.7604710318        1.1476879200       -1.2980258436
 H          1.8050546006        1.4709977978       -0.9161960178
 H          1.9692019704        0.5063937878       -3.1647661900
 H          4.1702197194       -0.2290093830       -4.0356290111
 H          6.1868220197       -0.0248180050       -2.6258810988
 H          5.9798677949        0.9102153172       -0.3181170494
 H          1.6624792004        1.6461879368        1.9099883175
 H          4.3128895915       -0.7728552943        1.4809449652
 H          3.8900078812       -3.0716487147        0.6443895734
 H          1.6027895639       -3.8028081757        0.1424698247
 C         -0.7253898392       -2.3826904581        0.4433660250
 H         -1.1526003914       -2.7636597252        1.3838010843
 C         -0.8098594706       -3.4764894055       -0.6048348781
 C         -0.7800885259       -4.9220050209       -0.2097998700
 C         -2.0579677674       -4.3019434864       -0.6861189116
 H         -2.4361324879       -4.5731421496       -1.6603374906
 H         -2.8314657963       -4.1001235109        0.0407193792
 H         -0.2802019782       -5.6236976178       -0.8605137979
 H         -0.6951331856       -5.1541377835        0.8411815544
 H         -0.3383746042       -3.1899514225       -1.5382501298
 O         -3.1020168547       -1.6298340431        1.8120232534
