  62
        -98.94582465
 C         -2.1371718946       -1.4842221631        0.0049406691
 C         -1.8457057685       -0.3399268549       -0.7763859196
 C         -2.9185435045        0.6594879213       -0.8570328010
 C         -4.0994445041        0.4268231296       -0.2560837255
 C         -5.2980552961        1.3362946138       -0.2791363388
 C         -5.2634595879        2.4425213422        0.7843983965
 C         -4.2560997790        3.5635791381        0.5252940784
 H         -4.4015262772        3.9551189187       -0.4819440115
 H         -4.4883469400        4.3694564835        1.2243946574
 C         -2.7894182525        3.1516058436        0.7151751670
 H         -2.2704596019        3.9127588976        1.3017539619
 H         -2.7438060587        2.2226541036        1.2881772606
 C         -2.0053649122        2.9688869803       -0.5845051056
 H         -1.9195975195        3.9292631642       -1.0974792984
 H         -1.0003100648        2.6250471985       -0.3280998826
 C         -2.6195549431        1.9514824316       -1.5546892588
 H         -3.5211884092        2.3591808497       -2.0110153168
 H         -1.8918617546        1.7417760584       -2.3421669993
 H         -5.0589393038        1.9862806513        1.7558499813
 H         -6.2624373750        2.8826390928        0.8286728297
 H         -5.4001687759        1.7836205585       -1.2682704367
 H         -6.1701752663        0.7061509009       -0.0912856515
 O         -4.3531253566       -0.7091989509        0.4481298690
 C         -3.3719458269       -1.6714131610        0.6254438555
 O         -3.7166431069       -2.6337730982        1.3415428103
 H          1.4985724937       -2.5198558882       -0.8080793278
 C          1.3976997197       -1.9768547587        0.1182090086
 C          0.1703306649       -1.9141602627        0.7558648380
 C          0.0762357794       -1.1996863273        1.9479351787
 C          1.1802515653       -0.5648457613        2.4826296033
 C          2.4035954518       -0.6202590279        1.8367000732
 C          2.5062918052       -1.3256721020        0.6461054839
 N          3.7370481809       -1.3741689752       -0.0270031804
 S          4.6643086069        0.0147197414       -0.1005176333
 O          5.4576873015       -0.1299822793       -1.3015584756
 O          5.4109545235        0.1609337220        1.1252441342
 C          3.5230123936        1.3764993921       -0.2714546849
 C          2.5879410609        1.3378626893       -1.2862555171
 C          1.7106175329        2.3997188808       -1.4295082594
 C          1.7842283236        3.4788787809       -0.5622361136
 C          2.7300533750        3.5040646394        0.4508667689
 C          3.6083740047        2.4431475275        0.6004893759
 H          4.3563877719        2.4193779930        1.3765301560
 H          2.7838088134        4.3443527398        1.1244016443
 H          1.0983756517        4.3036021049       -0.6769042518
 H          0.9654587825        2.3684267180       -2.2078392884
 H          2.5411607505        0.4883746765       -1.9478992093
 H          3.7012659615       -1.8406434323       -0.9213243919
 H          3.2759377041       -0.1323061997        2.2402346562
 H          1.0898756350       -0.0168320542        3.4082876664
 H         -0.8825631492       -1.1450996489        2.4462115649
 C         -1.0769711833       -2.5543144391        0.1977838097
 H         -1.4747633924       -3.2495931945        0.9505081051
 C         -0.8587109000       -3.3109428441       -1.0957078413
 C         -0.3122064308       -4.7060904005       -1.0683464140
 C         -1.7510743977       -4.4707716297       -1.4151202504
 H         -2.0660717168       -4.6129661986       -2.4380928447
 H         -2.5057983588       -4.7308769321       -0.6872477443
 H          0.3588782055       -5.0154164121       -1.8556794392
 H         -0.0866732150       -5.1354344650       -0.1039079381
 H         -0.5736288886       -2.6635737196       -1.9172383262
 O         -0.7550621185       -0.1603106792       -1.3759390424
