  62
        -98.93266166
 C         -1.9579674678       -0.8753055780        0.7453391213
 C         -2.0318470758       -0.1895432357       -0.4910616420
 C         -2.3242037533        1.2536835248       -0.4219003004
 C         -2.4412377014        1.8509110948        0.7750679600
 C         -2.6736515046        3.3096473039        1.0817001881
 C         -3.7009677856        4.0619930958        0.2249299603
 C         -4.8915743487        3.2169956560       -0.2514554409
 H         -4.9046350510        2.2609801938        0.2747923561
 H         -5.8180078288        3.7382591821       -0.0036363305
 C         -4.8809700761        2.9684145903       -1.7616028200
 H         -4.6115947832        3.8981600291       -2.2672113419
 H         -5.8915706138        2.7028079196       -2.0805795414
 C         -3.9495392484        1.8533821036       -2.2356764862
 H         -4.3428478731        0.8833618221       -1.9197497321
 H         -3.9477846263        1.8577318761       -3.3281776186
 C         -2.4965225452        1.9492139290       -1.7416966677
 H         -1.8616730724        1.4076187623       -2.4483929928
 H         -2.1599057007        2.9821774140       -1.6972157152
 H         -3.2035685357        4.4958167922       -0.6412839043
 H         -4.0635803620        4.8951962721        0.8293373228
 H         -2.9826755658        3.3328987201        2.1297953583
 H         -1.7080552947        3.8210272878        1.0209231459
 O         -2.3150165937        1.1610626292        1.9454748920
 C         -2.0588678385       -0.1981173828        1.9603754800
 O         -1.9433278004       -0.6835645080        3.1059375902
 H          0.6312520138       -0.9518130824        0.7422388643
 C          0.6738867258       -1.7760821782        0.0434651165
 C         -0.4175398366       -2.6301379909       -0.0692265315
 C         -0.3408273086       -3.6895662272       -0.9622297604
 C          0.7996361448       -3.8765117761       -1.7257412397
 C          1.8739016679       -3.0138940761       -1.6246473364
 C          1.8016434866       -1.9412615093       -0.7397573578
 N          2.8516804726       -1.0112909455       -0.6693542467
 S          2.9325165522        0.1441874623        0.5432040698
 O          3.0119904912       -0.4817637199        1.8466162289
 O          1.8707461697        1.1017623523        0.3542403622
 C          4.4978889395        0.8925952133        0.1333585767
 C          4.5412328082        1.7959619920       -0.9119741092
 C          5.7574153373        2.3625393059       -1.2583926419
 C          6.9041437697        2.0186604677       -0.5576007487
 C          6.8450264783        1.1127730223        0.4905358513
 C          5.6316518627        0.5410831078        0.8408570324
 H          5.5349539379       -0.1615286041        1.6528437837
 H          7.7372613692        0.8498772021        1.0355132146
 H          7.8492401065        2.4618798754       -0.8287129852
 H          5.8062394431        3.0690736822       -2.0711550330
 H          3.6219698226        2.0380971493       -1.4198462225
 H          3.7549208789       -1.3856852576       -0.9205399969
 H          2.7549681637       -3.1530746835       -2.2316111906
 H          0.8477140910       -4.7049185223       -2.4162518323
 H         -1.1770034917       -4.3596762759       -1.0754203572
 C         -1.6085686582       -2.3518017935        0.8173393400
 H         -1.2832574682       -2.5101142743        1.8604551931
 C         -2.7808782040       -3.2933473309        0.5813977278
 C         -4.1955130191       -2.8259810371        0.7483087337
 C         -3.6757023699       -3.1683849626       -0.6137748508
 H         -4.0325993036       -4.0736216074       -1.0829362837
 H         -3.4677330765       -2.3669056040       -1.3042140012
 H         -4.9033833693       -3.4937478082        1.2163650795
 H         -4.3514278882       -1.7845395476        0.9915950376
 H         -2.5690626043       -4.2998225708        0.9291529140
 O         -1.8564815045       -0.7403419689       -1.6084268487
