  62
        -98.94531385
 C          1.4597617917        1.2910462307       -0.4844552813
 C          2.7867512583        1.3690975619        0.0150269270
 C          3.7421312831        0.3890623003       -0.5091037020
 C          3.3370548969       -0.5085551768       -1.4251792788
 C          4.1920070331       -1.5676532790       -2.0667072015
 C          4.3309408288       -2.8459226898       -1.2286366434
 C          5.2217658660       -2.7191699925        0.0080256956
 H          5.4094433339       -3.7312929532        0.3720122820
 H          6.1831661802       -2.2928545801       -0.2803783898
 C          4.6100853769       -1.8917009653        1.1473995972
 H          3.5323816743       -1.7959229104        0.9909378642
 H          4.7473075918       -2.4189811815        2.0943406926
 C          5.2140112014       -0.4969908040        1.3137872469
 H          4.6791844463        0.0124525762        2.1194216705
 H          6.2624910574       -0.5849939249        1.6070587262
 C          5.1290407545        0.3818432832        0.0592888204
 H          5.8447816121        0.0410973513       -0.6885050582
 H          5.3773210310        1.4076816201        0.3422321711
 H          3.3333900888       -3.1761598071       -0.9274974119
 H          4.7539676987       -3.6167664105       -1.8771898179
 H          3.7099273861       -1.8266610762       -3.0118511825
 H          5.1812348012       -1.1613742693       -2.2799997066
 O          2.0666604305       -0.5358709047       -1.9019866782
 C          1.0910462135        0.3351469851       -1.4316090390
 O         -0.0216261680        0.1561253639       -1.9621760194
 O          3.1577738817        2.2304614144        0.8568650414
 C          0.4609765213        2.2720496734        0.1098582191
 C         -0.2237496847        1.6201243753        1.2888174352
 C          0.0946756654        2.0063357812        2.5856967835
 C         -0.4993803841        1.3845785895        3.6692844034
 C         -1.4156292785        0.3674967283        3.4777538224
 C         -1.7414676540       -0.0283035493        2.1834805336
 C         -1.1528982222        0.6057364412        1.0988359359
 H         -1.3838864455        0.2775507787        0.0997690889
 N         -2.6873699836       -1.0376962537        1.9785250575
 S         -2.7116997074       -2.0133146430        0.6196170686
 O         -3.4797829119       -3.1671666618        1.0441221723
 O         -1.3827076428       -2.2886510752        0.1284589563
 C         -3.6922709090       -1.0799448048       -0.5358911026
 C         -3.1516255651       -0.5951182626       -1.7085416681
 C         -3.9631452982        0.1400829087       -2.5607464661
 C         -5.2888218024        0.3719939856       -2.2309468591
 C         -5.8176670897       -0.1292275102       -1.0504358584
 C         -5.0138000688       -0.8621551142       -0.1941084619
 H         -5.3851805159       -1.2775326753        0.7278839660
 H         -6.8497880206        0.0512119139       -0.7965794698
 H         -5.9123016413        0.9463442123       -2.8980746634
 H         -3.5463019613        0.5299087389       -3.4759662568
 H         -2.1112568410       -0.7734813571       -1.9342940478
 H         -2.9927371146       -1.5216046604        2.8091385793
 H         -1.8750595919       -0.1246347375        4.3215180549
 H         -0.2414569888        1.6895264239        4.6722732781
 H          0.8303504602        2.7824283741        2.7380365460
 H          1.0716368712        3.0983366825        0.4996351155
 C         -0.5359852817        2.8396282784       -0.8782206980
 C         -1.2606080173        4.1026951506       -0.5240763226
 C         -0.2126038423        4.1146493783       -1.5952231689
 H         -0.5230927071        4.2184113957       -2.6238980654
 H          0.7351690628        4.5852055905       -1.3770924490
 H         -2.2950811755        4.1995181135       -0.8149482421
 H         -1.0229645179        4.5664471396        0.4213715783
 H         -1.0799174646        2.0868264140       -1.4321107444
