  62
        -98.94315180
 C          2.5826094555       -0.0818581444       -0.3655313849
 C          2.6774669873       -1.0982549752        0.6208787389
 C          2.0985418270       -2.3996302026        0.2807123164
 C          1.5212255220       -2.5724248957       -0.9214205070
 C          0.8409197862       -3.8232188251       -1.4069702304
 C         -0.6119379140       -3.9436525571       -0.9256358590
 C         -0.7780322430       -4.3357077686        0.5436145562
 H         -1.8192325933       -4.6359591604        0.6773582513
 H         -0.1563247787       -5.2054219817        0.7605899238
 C         -0.4612589180       -3.2090333318        1.5370973270
 H         -0.4907228437       -2.2476126752        1.0184147775
 H         -1.2355797739       -3.1788583074        2.3079263607
 C          0.8791934194       -3.3509273252        2.2589979708
 H          1.0210801755       -2.4682741636        2.8878779841
 H          0.8544245099       -4.2297164956        2.9083108467
 C          2.0952480760       -3.4684078577        1.3321513353
 H          2.1213560534       -4.4541924708        0.8679439291
 H          2.9975271802       -3.3401825431        1.9357359385
 H         -1.1144792806       -2.9888615724       -1.1037647748
 H         -1.1000360166       -4.7021073052       -1.5427414446
 H          0.8424270347       -3.7759684981       -2.4981538677
 H          1.4078742193       -4.7008394049       -1.0943195070
 O          1.5039033607       -1.5978068685       -1.8656770558
 C          1.9873304225       -0.3221641864       -1.6045266217
 O          1.8444724007        0.4618809451       -2.5652291452
 O          3.2253079696       -0.9183968956        1.7428702618
 C          3.0286802879        1.3036830039        0.0725172044
 C          1.8659761778        1.9621170915        0.7814657754
 C          2.0105501130        2.5331102083        2.0399104682
 C          0.9126224966        3.0443879370        2.7099912759
 C         -0.3520959878        2.9596096941        2.1567800628
 C         -0.5041424552        2.3981475548        0.8935291015
 C          0.6064810219        1.9432778966        0.2005157432
 H          0.4680784506        1.5250373716       -0.7853127989
 N         -1.7673353110        2.2626630453        0.2978006420
 S         -2.0481255738        0.8521158559       -0.5990096927
 O         -1.3089015945       -0.2534857575       -0.0378025125
 O         -1.8293188767        1.1474624589       -1.9929750806
 C         -3.7949296326        0.6222242109       -0.3165280758
 C         -4.2133080937       -0.3130919824        0.6104135744
 C         -5.5716378559       -0.4671331051        0.8410658127
 C         -6.4825924715        0.3152505868        0.1475678627
 C         -6.0473628570        1.2502047935       -0.7802982383
 C         -4.6911188380        1.4076207252       -1.0174048688
 H         -4.3054417794        2.1110672605       -1.7369563630
 H         -6.7583976344        1.8545098640       -1.3200604211
 H         -7.5387138954        0.1937962052        0.3292239487
 H         -5.9121206562       -1.1957907698        1.5588649153
 H         -3.4672349374       -0.9019367307        1.1199399899
 H         -2.5305975180        2.4717424217        0.9266875540
 H         -1.2152407188        3.3181517124        2.6967026971
 H          1.0383523955        3.4845094203        3.6875390035
 H          2.9854799651        2.5497219703        2.5037744042
 H          3.8218682802        1.1406736958        0.8160406209
 C          3.5731292746        2.1955353386       -1.0222074078
 C          4.5144447318        3.3030866602       -0.6564349981
 C          5.0207472286        2.1021111199       -1.3960687727
 H          5.2876154571        2.2048503327       -2.4368376337
 H          5.6290512549        1.3898225894       -0.8579205930
 H          4.4355074863        4.2387290201       -1.1880257881
 H          4.7866035100        3.4078244794        0.3827459976
 H          2.8651436775        2.3774937052       -1.8202050573
