  62
        -98.95112938
 C         -1.9875455185       -0.9188083445        0.1121269200
 C         -1.5207934960       -1.8442446235       -0.8532475045
 C         -0.4767746837       -2.7748127628       -0.4033417700
 C         -0.0612722432       -2.7291782331        0.8753366809
 C          1.0155201535       -3.5935048436        1.4631828189
 C          2.3926058400       -2.9223775738        1.3724298183
 C          2.7364327359       -2.3906646916       -0.0188796949
 H          2.0822666288       -1.5509156835       -0.2645480323
 H          3.7527248486       -1.9915629767        0.0265580809
 C          2.6460428955       -3.4313752176       -1.1433967481
 H          2.6740783290       -4.4391193874       -0.7259878044
 H          3.5192646634       -3.3210025766       -1.7897697539
 C          1.4126288985       -3.2809454593       -2.0367722622
 H          1.3175269116       -2.2357428576       -2.3455475108
 H          1.5700468071       -3.8768405308       -2.9403307317
 C          0.0823637161       -3.7311799359       -1.4174862790
 H         -0.6583491484       -3.7833320680       -2.2211125131
 H          0.1945861162       -4.7299245304       -0.9890983750
 H          3.1477554721       -3.6482399125        1.6797106783
 H          2.4201700056       -2.0831629288        2.0711104991
 H          0.7769665867       -3.7679840457        2.5138359914
 H          1.0303160087       -4.5482846406        0.9411436217
 O         -0.5642077786       -1.8574295433        1.7852479288
 C         -1.5037335788       -0.9015478850        1.4198018699
 O         -1.8178861490       -0.1213279892        2.3380631896
 H         -0.7257053278        0.7920797577       -1.5395927046
 C         -1.0875914396        1.6198200402       -0.9466361631
 C         -2.2834059694        1.4894295784       -0.2492495293
 C         -2.7455999937        2.5729602481        0.4851674298
 C         -2.0087924013        3.7442233812        0.5371805789
 C         -0.7978044182        3.8532894264       -0.1213793374
 C         -0.3310360391        2.7780634859       -0.8706369770
 N          0.8924661422        2.8558204137       -1.5606107359
 S          2.0207228060        1.6260012109       -1.4598169335
 O          3.1845032718        2.1513103182       -2.1391374071
 O          1.4719862986        0.4027587258       -1.9835162117
 C          2.3816766899        1.4491208223        0.2769398834
 C          1.4590462907        0.8175785065        1.0856600598
 C          1.7146225759        0.7073460585        2.4427837166
 C          2.8902502351        1.2237581328        2.9658656204
 C          3.8103578139        1.8533605154        2.1406390527
 C          3.5540433735        1.9740957184        0.7842390296
 H          4.2407929710        2.4533916559        0.1055105240
 H          4.7242630150        2.2516536802        2.5510139774
 H          3.0877863369        1.1327816906        4.0223489153
 H          0.9827652687        0.2229819876        3.0712445009
 H          0.5532804099        0.4206174386        0.6548057378
 H          1.3539782077        3.7509797869       -1.4829757521
 H         -0.2171242065        4.7611673818       -0.0611144411
 H         -2.3761655989        4.5793414361        1.1138656572
 H         -3.6753896303        2.4980590372        1.0240919136
 C         -2.9792317728        0.1506979180       -0.3159540227
 H         -3.2029832668       -0.0657815526       -1.3710970077
 C         -4.2617738388        0.0779703563        0.4824062797
 C         -5.5325706820        0.6243791977       -0.0943242575
 C         -5.3434049371       -0.8564831168        0.0334031038
 H         -5.9092904864       -1.3879314880        0.7836782362
 H         -5.1635706404       -1.4302986978       -0.8642576547
 H         -5.4869779320        1.0571427422       -1.0823323415
 H         -6.2335021249        1.1092828982        0.5680342335
 H         -4.0985534498        0.1751876729        1.5492658204
 O         -1.9605935221       -1.8889922029       -2.0342067898
