  62
        -98.93826186
 C         -0.8716411681       -1.2559342199        0.4516666682
 C         -1.3925912420       -0.0771708436        1.0330335537
 C         -2.2698321349        0.7322474786        0.1782869621
 C         -2.4729964566        0.3529777913       -1.0964915535
 C         -3.3573349129        1.0736422487       -2.0723806958
 C         -4.7884705753        0.5194391796       -2.0446375545
 C         -5.3752304978        0.4032316091       -0.6378233825
 H         -6.3974282527        0.0330135655       -0.7411927825
 H         -4.8140572747       -0.3506411156       -0.0810121313
 C         -5.3837589379        1.7175690965        0.1550833019
 H         -5.2657326800        2.5612326743       -0.5258614372
 H         -6.3556122587        1.8264128273        0.6409561453
 C         -4.3241983973        1.8012117734        1.2552266025
 H         -4.3775500844        0.9077267887        1.8821124103
 H         -4.5603435457        2.6606795625        1.8881445661
 C         -2.8747587348        1.9695933106        0.7810951244
 H         -2.8088822571        2.8108444288        0.0869793536
 H         -2.2655671248        2.1963407668        1.6607929089
 H         -5.4212279465        1.1674096846       -2.6539729477
 H         -4.7826522307       -0.4743844224       -2.4981693211
 H         -3.3618675384        2.1358290533       -1.8341184391
 H         -2.9393980166        0.9402087736       -3.0719760019
 O         -1.9292954874       -0.7673888760       -1.6320076666
 C         -1.1120359766       -1.5989948117       -0.8799469726
 O         -0.6835250140       -2.5889982265       -1.4999731234
 H          1.4832015811       -0.1299519594        0.4969914800
 C          1.9380923746       -1.0472547930        0.1505802373
 C          1.3498934478       -2.2637098983        0.4948681705
 C          1.9642573624       -3.4235854448        0.0438335415
 C          3.1023926224       -3.3567404633       -0.7449349750
 C          3.6396861010       -2.1446919125       -1.1304954074
 C          3.0380566117       -0.9740737386       -0.6824197388
 N          3.5248531124        0.2901104692       -1.0510326089
 S          2.4260913976        1.5211726074       -1.3461946869
 O          1.1753685585        1.0276788074       -1.8747333085
 O          3.1494183313        2.4468053288       -2.1955500635
 C          2.1857602219        2.2861132111        0.2423530918
 C          3.2891535195        2.5098760641        1.0423741660
 C          3.1115795915        3.1372069503        2.2646631303
 C          1.8430938170        3.5342979837        2.6602950965
 C          0.7474387658        3.3087050947        1.8421692105
 C          0.9175112543        2.6778469011        0.6201624736
 H          0.0882525420        2.4636982641       -0.0369062057
 H         -0.2398597208        3.6112585135        2.1518948640
 H          1.7046181392        4.0209430012        3.6128248367
 H          3.9607106978        3.3135093950        2.9051407350
 H          4.2579133564        2.1872687200        0.6995162526
 H          4.2681335429        0.2777083141       -1.7345688366
 H          4.5020126286       -2.0997102494       -1.7780413984
 H          3.5596520087       -4.2725908000       -1.0883159908
 H          1.5594765599       -4.3936704621        0.2664393369
 C          0.0718601362       -2.1178260797        1.2850202410
 H          0.3129631292       -1.4902618167        2.1602535321
 C         -0.6919960314       -3.3111304200        1.8352874344
 C         -0.9396060486       -4.5952414524        1.1078058508
 C         -0.0770236817       -4.5831003851        2.3362467312
 H         -0.4857952845       -5.0125480062        3.2391370095
 H          0.9873768406       -4.7174104425        2.2387446898
 H         -1.9261733872       -5.0302971706        1.1827045991
 H         -0.4979297595       -4.7153300056        0.1320990925
 H         -1.5330189010       -2.9416056839        2.4189044349
 O         -1.1286421592        0.2856572637        2.2122488777
