  62
        -98.94467431
 C         -2.1492579948       -1.0201910296       -0.4249420660
 C         -3.1936026216       -1.2242728138        0.5110475629
 C         -4.4467117093       -0.5124806680        0.2401837499
 C         -4.5471712123        0.2697883740       -0.8498546956
 C         -5.7626526178        1.0513093841       -1.2690223707
 C         -5.8935726149        2.4160674823       -0.5788596768
 C         -6.2971768954        2.3639852206        0.8952743797
 H         -6.5630270509        3.3811148215        1.1900800112
 H         -7.1915100454        1.7496120052        1.0043187323
 C         -5.1983837432        1.8493881014        1.8357594357
 H         -4.2319419403        1.8971725097        1.3281626475
 H         -5.1320527118        2.5019277375        2.7093098889
 C         -5.4190004548        0.4263655160        2.3489612908
 H         -6.3167116929        0.3961178901        2.9703605744
 H         -4.5663413461        0.1525190082        2.9753211270
 C         -5.5537726147       -0.6295974526        1.2439737556
 H         -6.5230974385       -0.5402987398        0.7542194993
 H         -5.4827293258       -1.6182292599        1.7039775593
 H         -6.6531740328        2.9837605961       -1.1213418110
 H         -4.9456484240        2.9502075911       -0.6787066788
 H         -5.6699510247        1.2173146154       -2.3445106900
 H         -6.6606660830        0.4610482546       -1.0845907872
 O         -3.5261615370        0.4293076800       -1.7324704935
 C         -2.2985452338       -0.1886246696       -1.5348310011
 O         -1.4528995672        0.0733538300       -2.4114557881
 O         -3.0830120568       -1.9672691298        1.5220856391
 C         -0.8143385946       -1.7013018320       -0.1716669791
 C          0.2008834598       -0.6351399955        0.1563991127
 C          0.1495858207       -0.0230634259        1.4065332451
 C          1.0229850679        0.9971071657        1.7312537882
 C          1.9658844659        1.4316570136        0.8156123704
 C          2.0270576109        0.8256898380       -0.4319503828
 C          1.1577027417       -0.2104238152       -0.7514159850
 H          1.2089058932       -0.6602924423       -1.7299921748
 N          2.9781724889        1.2619093490       -1.3666165518
 S          4.5349081510        1.5736939469       -0.8487417537
 O          4.5947581193        2.8758825496       -0.2317612552
 O          5.3663856803        1.3904023389       -2.0176395321
 C          4.8817738906        0.3151809941        0.3678688071
 C          5.1466611891        0.6726391153        1.6739812129
 C          5.3833345745       -0.3240868112        2.6072905802
 C          5.3482233476       -1.6544520034        2.2202395747
 C          5.0841589153       -1.9977251088        0.9028799147
 C          4.8475086288       -1.0055026778       -0.0342427937
 H          4.6457011914       -1.2385208498       -1.0673174415
 H          5.0591479233       -3.0333161907        0.6038936402
 H          5.5284943781       -2.4294708126        2.9483888009
 H          5.5906549034       -0.0598101161        3.6317463318
 H          5.1637617771        1.7189698564        1.9321886903
 H          2.9585033276        0.7640857286       -2.2435926853
 H          2.6406220366        2.2410357174        1.0423763069
 H          0.9681473889        1.4639164536        2.7029453172
 H         -0.5965014754       -0.3528507969        2.1161605540
 H         -0.9694679257       -2.3134006794        0.7273024774
 C         -0.4149971739       -2.6081950923       -1.3155792001
 C          0.6494293266       -3.6406611091       -1.0975444496
 C         -0.7802371722       -4.0599536765       -1.2582848731
 H         -1.0754592818       -4.5520095919       -2.1729961274
 H         -1.3141282030       -4.4065539974       -0.3857171721
 H          1.3387567669       -3.8504926245       -1.9011841178
 H          1.0861823444       -3.7017049837       -0.1124459870
 H         -0.4677059461       -2.1245898361       -2.2837643419
