  62
        -98.94145310
 C         -0.6284284224       -1.7791173778        0.3992550010
 C         -0.9823314077       -0.8379420843       -0.5921695919
 C         -2.0737145572        0.0996869464       -0.2586283278
 C         -2.5717845312        0.0938839969        0.9917691388
 C         -3.6568581949        0.9606386504        1.5770085260
 C         -5.0660970645        0.5385181360        1.1374222518
 C         -5.2129745216        0.2811733396       -0.3592058783
 H         -6.2317452205       -0.0738167389       -0.5354827551
 H         -4.5342680539       -0.5222082760       -0.6497014615
 C         -4.9779081857        1.4975166435       -1.2523055126
 H         -5.6465405617        2.3033485975       -0.9425337580
 H         -5.2561311944        1.2081641795       -2.2686683969
 C         -3.5433842801        2.0338665262       -1.2918428726
 H         -3.3272484459        2.6566703038       -0.4282354548
 H         -3.4623634298        2.6790571902       -2.1705816077
 C         -2.4729391754        0.9576523732       -1.4341506774
 H         -1.5432913864        1.4219307536       -1.7784902368
 H         -2.7621156241        0.2662269067       -2.2342291942
 H         -5.7689000618        1.3135234424        1.4487437801
 H         -5.3248672456       -0.3828768136        1.6651678461
 H         -3.4749844453        2.0033226602        1.3343022798
 H         -3.5838716555        0.8559129040        2.6621935475
 O         -2.1327774203       -0.7792219001        1.9465181491
 C         -1.1898313161       -1.7488741047        1.6737476087
 O         -0.9323503245       -2.5101842528        2.6305639566
 O         -0.4240401448       -0.7808371837       -1.7193607748
 C          0.4319492270       -2.8230263256        0.1092536677
 C          1.7406384162       -2.1681383702       -0.2612376016
 C          2.6103656043       -2.7006059443       -1.2054674582
 C          3.8123481340       -2.0731556025       -1.4829007597
 C          4.1679007134       -0.9032990000       -0.8370602154
 C          3.3043436695       -0.3643011164        0.1112595258
 C          2.1094258616       -1.0030843074        0.3981968074
 H          1.4539626859       -0.5811217733        1.1456486590
 N          3.6384250152        0.8176024580        0.7913530635
 S          2.5052161929        1.9267920000        1.2853801083
 O          3.2942171291        3.0718356879        1.6931043185
 O          1.6462688368        1.3729034209        2.3037820066
 C          1.5296747124        2.4217078491       -0.1275432248
 C          1.9100686112        2.1380740252       -1.4224759316
 C          1.1589466157        2.6531440719       -2.4684972042
 C          0.0584710243        3.4519793919       -2.2060941797
 C         -0.3120918744        3.7286831246       -0.8984234012
 C          0.4260636467        3.2053468719        0.1492578546
 H          0.1715722124        3.3874000583        1.1815785157
 H         -1.1717790774        4.3463608444       -0.6943510647
 H         -0.5172284166        3.8575758730       -3.0231728909
 H          1.4385434753        2.4257318733       -3.4844479448
 H          2.7669122224        1.5148194472       -1.6177404373
 H          4.4925790605        1.2658967484        0.4944730728
 H          5.1028890670       -0.4110449523       -1.0577951642
 H          4.4793574564       -2.4974668826       -2.2176614715
 H          2.3465835967       -3.6076272329       -1.7239973624
 H          0.5847434265       -3.3689051627        1.0529295531
 C         -0.0667456065       -3.7945661601       -0.9423264060
 C          0.3446270442       -5.2349268626       -0.9045694366
 C         -1.0558771103       -4.8458782585       -0.5409610842
 H         -1.8560257981       -5.0906570919       -1.2231824555
 H         -1.3444846194       -4.8799668691        0.4999958457
 H          0.5032566132       -5.7512201852       -1.8394309191
 H          1.0033169591       -5.5475640247       -0.1082618530
 H         -0.2015227488       -3.3233471521       -1.9090775920
