  62
        -98.94399835
 C         -2.1269655786       -1.2279175864       -0.1475545705
 C         -2.5525952860       -0.1455469932       -0.9546136488
 C         -3.9605614940        0.2437429917       -0.8022850496
 C         -4.7581526667       -0.4373797295        0.0402258054
 C         -6.2200668729       -0.1765184958        0.2823913501
 C         -6.4940369538        0.9262517787        1.3140854783
 C         -6.2002209158        2.3494626002        0.8380231260
 H         -6.7078359705        2.5263434498       -0.1107325150
 H         -6.6366389842        3.0294260961        1.5723778876
 C         -4.7065370141        2.6733453809        0.6931525135
 H         -4.1172814819        1.9330134290        1.2392754566
 H         -4.4981197526        3.6444355055        1.1478920675
 C         -4.2070764849        2.7340065027       -0.7505236920
 H         -4.6919147424        3.5627636808       -1.2714610660
 H         -3.1316769682        2.9302475740       -0.7323705380
 C         -4.4402702492        1.4480171239       -1.5544040565
 H         -5.4958863119        1.3470359445       -1.8057656954
 H         -3.8634530134        1.5136608194       -2.4802352923
 H         -5.9110324799        0.7157076767        2.2136470779
 H         -7.5514503203        0.8666389461        1.5819344502
 H         -6.7089659153        0.0746931984       -0.6592314820
 H         -6.6444943529       -1.1106367199        0.6566239032
 O         -4.3144928746       -1.4884691666        0.7799293562
 C         -2.9898861459       -1.8897097892        0.7266658219
 O         -2.7076152425       -2.8357316166        1.4895516920
 H          1.2897288483       -0.3960487229       -1.6386709704
 C          1.1706745474       -0.0108226830       -0.6385041629
 C          0.2206867913       -0.5592339605        0.2073651810
 C          0.0906692349       -0.0338410417        1.4906270979
 C          0.8810015492        1.0190905142        1.9090894439
 C          1.8187403434        1.5746138915        1.0555700930
 C          1.9572859594        1.0574736857       -0.2245513509
 N          2.9105690683        1.6160057190       -1.0961503864
 S          4.4843921244        1.7408237057       -0.5407360083
 O          4.5850981750        2.8365662198        0.3897097120
 O          5.3020475110        1.8363801534       -1.7287724971
 C          4.7766268105        0.1946640538        0.2985941018
 C          4.7643937144        0.1448475794        1.6774045209
 C          4.9188638289       -1.0817570323        2.3037540894
 C          5.0777258389       -2.2305340154        1.5446512409
 C          5.0911065608       -2.1633815484        0.1596590862
 C          4.9348766675       -0.9405826494       -0.4717584996
 H          4.9475680711       -0.8477362635       -1.5458459266
 H          5.2173536766       -3.0585622203       -0.4279433510
 H          5.1935498445       -3.1843848345        2.0348215200
 H          4.9108544888       -1.1375455493        3.3803797983
 H          4.6413789240        1.0609902685        2.2310117101
 H          2.8895977387        1.2205354211       -2.0247835455
 H          2.4381329929        2.4030472526        1.3589850311
 H          0.7642782764        1.4162041696        2.9061418507
 H         -0.6479094667       -0.4634429140        2.1542208805
 C         -0.6830321247       -1.6976881041       -0.1978959511
 H         -0.5959817170       -2.4868962827        0.5619064895
 C         -0.3620878414       -2.2904199650       -1.5533903800
 C          0.7782761143       -3.2525101741       -1.6939305933
 C         -0.6342367457       -3.7440709350       -1.7907150538
 H         -1.0123294093       -4.0460431263       -2.7559742142
 H         -1.0385735906       -4.3144591105       -0.9671887152
 H          1.3719927298       -3.2235968772       -2.5950764286
 H          1.3376515475       -3.4937327556       -0.8028813946
 H         -0.5640223561       -1.6077818402       -2.3706560799
 O         -1.8047836570        0.4618328345       -1.7643638347
