  62
        -98.93800961
 C         -2.4247737007       -0.4062317318        0.4696603635
 C         -3.2226044438       -0.3618389530       -0.7008948462
 C         -4.3099789361        0.6292041163       -0.6897254022
 C         -4.4644430463        1.4533260881        0.3609598144
 C         -5.5054977040        2.5307275194        0.4998528075
 C         -6.8620493288        2.0254468192        1.0100434125
 C         -7.6749285639        1.2128521511        0.0013008876
 H         -8.6826669252        1.1118668046        0.4092265267
 H         -7.7561946979        1.7710387072       -0.9318847868
 C         -7.1149834078       -0.1881780852       -0.2817273953
 H         -7.9280159214       -0.9173355286       -0.2555366506
 H         -6.4118166115       -0.4654387683        0.5071849984
 C         -6.4209163728       -0.3316585092       -1.6362747630
 H         -7.1487447386       -0.1867341650       -2.4376679064
 H         -6.0313578702       -1.3498045765       -1.7157517087
 C         -5.2541015620        0.6403843691       -1.8542195521
 H         -4.6973101933        0.3149253401       -2.7362322330
 H         -5.6312049588        1.6475544007       -2.0296668640
 H         -7.4492753041        2.9011855216        1.2958835004
 H         -6.6964936210        1.4287001753        1.9101117021
 H         -5.6405348591        3.0361024110       -0.4568063072
 H         -5.1125760790        3.2503253215        1.2213455421
 O         -3.6473520508        1.4100115236        1.4475792666
 C         -2.6326188634        0.4736172290        1.5354942964
 O         -1.9873815088        0.5193011864        2.6033166217
 O         -3.0548398146       -1.0935960133       -1.7085099410
 C         -1.2853364556       -1.3937980539        0.6626447207
 C          0.0008770066       -0.8356872465        0.1103392392
 C          0.0914544269       -0.3936042053       -1.2060624212
 C          1.2828526321        0.1115012867       -1.6934975327
 C          2.4019129107        0.1933103870       -0.8827837280
 C          2.3215421865       -0.2411165048        0.4330009937
 C          1.1250881972       -0.7543884359        0.9184038416
 H          1.0631004671       -1.0813620575        1.9480452196
 N          3.4483760541       -0.1430734439        1.2653787698
 S          4.9153588777       -0.7371531865        0.7059177586
 O          4.7203820681       -1.8167514209       -0.2335017806
 O          5.6734735448       -1.0493684384        1.8974923282
 C          5.6631311109        0.6576021096       -0.1090288076
 C          6.0776164914        0.5468143766       -1.4217823163
 C          6.6673744660        1.6425001385       -2.0329071803
 C          6.8320469231        2.8224408969       -1.3238329006
 C          6.4129318267        2.9163294302       -0.0049356042
 C          5.8238913510        1.8244469748        0.6121662448
 H          5.4882762058        1.8559333910        1.6353723477
 H          6.5429911224        3.8355596844        0.5432500825
 H          7.2902837960        3.6740102543       -1.8015141872
 H          6.9945705712        1.5714229270       -3.0577767976
 H          5.9245120403       -0.3889732631       -1.9355438593
 H          3.2806294333       -0.4301692466        2.2187309148
 H          3.3308973412        0.5893344898       -1.2591793826
 H          1.3410347083        0.4485889469       -2.7173660606
 H         -0.7802065231       -0.4560271426       -1.8397087493
 H         -1.1646342452       -1.4782564493        1.7545992734
 C         -1.6092326137       -2.7874956413        0.1405375798
 C         -0.9270692728       -3.4248758397       -1.0284673958
 C         -0.6355859582       -3.9083926223        0.3582420151
 H         -1.0120868872       -4.8720658692        0.6663756108
 H          0.3265807744       -3.6555460568        0.7797280430
 H         -1.5278251195       -4.0406399667       -1.6801464416
 H         -0.1593243379       -2.8691193825       -1.5428673494
 H         -2.6592271985       -3.0302649645        0.2686723202
