  62
        -98.94167613
 C          2.3783680765        1.2340614591        0.1694757250
 C          3.3032938213        0.5549882239        1.0029807989
 C          4.0957879327       -0.5024003329        0.3662934302
 C          3.8977993575       -0.7922633779       -0.9322546324
 C          4.6443646640       -1.8241878238       -1.7335020086
 C          4.0913498427       -3.2485902423       -1.5886103111
 C          4.3734217360       -3.9223282783       -0.2450279933
 H          4.1253312541       -4.9794573417       -0.3586695968
 H          5.4395409436       -3.8593504859       -0.0249808906
 C          3.5684801143       -3.3509524561        0.9307240430
 H          2.7240877379       -2.7731205288        0.5458980978
 H          3.1500162614       -4.1713538246        1.5184939593
 C          4.3780107488       -2.4741676402        1.8865782219
 H          5.1433896716       -3.0790901628        2.3774735601
 H          3.7033186827       -2.0940701636        2.6580081344
 C          5.0588946201       -1.2721546662        1.2190301017
 H          5.4171796887       -0.6023470249        2.0045644839
 H          5.9104568222       -1.6039880190        0.6255618884
 H          4.5433172588       -3.8551166842       -2.3768312219
 H          3.0131280853       -3.2249673783       -1.7660170195
 H          5.6985091805       -1.8119177088       -1.4547768773
 H          4.5568308540       -1.5266834857       -2.7807040013
 O          2.9752380212       -0.1446079979       -1.6907566340
 C          2.1763104627        0.8640025419       -1.1615845365
 O          1.3551665339        1.3287956138       -1.9728668700
 O          3.4570917298        0.8193705610        2.2253932170
 C          1.5346858277        2.3273310371        0.8015263251
 C          0.0798378144        2.1125245224        0.4674071636
 C         -0.7033587732        3.0343926178       -0.2130293935
 C         -2.0267011918        2.7490971627       -0.5016540605
 C         -2.5974634677        1.5502234312       -0.1168319920
 C         -1.8215616273        0.6180099417        0.5600190968
 C         -0.4988133770        0.9089203321        0.8527333309
 H          0.1082510949        0.1786549767        1.3754460690
 N         -2.3929788519       -0.6017686594        0.9656634094
 S         -3.2494741557       -1.4959359944       -0.1695174171
 O         -3.1926268250       -2.8596262981        0.3127070652
 O         -2.7645549182       -1.2692242335       -1.5111037192
 C         -4.9174783062       -0.8942092267       -0.0067578291
 C         -5.5927541410       -0.4302511958       -1.1185153027
 C         -6.8926857440        0.0281599273       -0.9699386372
 C         -7.4908627584        0.0136261386        0.2807347070
 C         -6.7998089037       -0.4584443199        1.3868453704
 C         -5.5007279981       -0.9192239603        1.2450661385
 H         -4.9304492385       -1.2964280592        2.0773407043
 H         -7.2682162419       -0.4680866896        2.3577943532
 H         -8.5016422568        0.3724717499        0.3938785698
 H         -7.4310173836        0.3951237485       -1.8289934671
 H         -5.0837415749       -0.4315931159       -2.0694256919
 H         -1.7533279727       -1.1985079976        1.4705823469
 H         -3.6254034710        1.3232914473       -0.3476654855
 H         -2.6222070137        3.4711236835       -1.0392789911
 H         -0.2706927903        3.9642264886       -0.5431136781
 H          1.6572583133        2.1681899947        1.8864861821
 C          2.0207563410        3.7406376478        0.5196276253
 C          3.4687678307        4.0178380976        0.2500880076
 C          2.4575678544        4.1884798863       -0.8417132903
 H          2.2079227254        5.1920089539       -1.1542087863
 H          2.4300873877        3.4639045952       -1.6400858594
 H          3.9122311705        4.9004477294        0.6859024420
 H          4.1391497607        3.1720837024        0.1981767323
 H          1.4989764691        4.4734561350        1.1274809832
