  62
        -98.92644146
 C          1.8671018656        0.6836524388        0.7837262139
 C          2.3702455957        0.2670270657       -0.4719048191
 C          2.8368271881       -1.1298965110       -0.5535581897
 C          2.7137075741       -1.9357927230        0.5133228170
 C          3.0823165916       -3.3935975287        0.6341810484
 C          4.4301896472       -3.8326245681        0.0427392397
 C          5.5391555920       -2.7711684628        0.0885007846
 H          5.2374726092       -1.9426073329        0.7315460072
 H          6.4351617129       -3.2144899352        0.5269330710
 C          5.9101496587       -2.2349412535       -1.2963924791
 H          6.9078178625       -1.7925025660       -1.2451081885
 H          5.9599160469       -3.0739271138       -1.9937390572
 C          4.9716583976       -1.1694332518       -1.8617736348
 H          5.0886616874       -0.2377054768       -1.3020650818
 H          5.2753571765       -0.9655926555       -2.8912196796
 C          3.4770377087       -1.5304613043       -1.8517275081
 H          2.9814703268       -0.9390129743       -2.6262715236
 H          3.3227601645       -2.5848479114       -2.0675491958
 H          4.2873701813       -4.1507900387       -0.9890059000
 H          4.7470594198       -4.7140761584        0.6026082296
 H          3.0670358317       -3.6012594511        1.7068624447
 H          2.2803530034       -3.9839765768        0.1812579651
 O          2.1751784608       -1.5051664451        1.6910038364
 C          1.7518847249       -0.1996649006        1.8566447820
 O          1.3066604661        0.0526542595        2.9969300344
 H         -1.0383191435        1.1294609533        1.1210614120
 C         -0.9291463715        1.7389439626        0.2339617686
 C          0.2835022181        2.3813550219       -0.0079415242
 C          0.3976520913        3.1363125782       -1.1681730791
 C         -0.6687343736        3.2424694525       -2.0458608042
 C         -1.8618353569        2.5893705453       -1.8057766763
 C         -1.9889651950        1.8237804274       -0.6519290532
 N         -3.1923065027        1.1548663672       -0.3609300440
 S         -3.1001220662       -0.3535133368        0.3930461880
 O         -2.9738858059       -0.1546770788        1.8152253148
 O         -2.0862165103       -1.1685286117       -0.2406459638
 C         -4.7281744557       -0.9834496723        0.0255474026
 C         -4.9025763546       -1.8497950118       -1.0368847743
 C         -6.1801925520       -2.2995623122       -1.3323478279
 C         -7.2559467906       -1.8745597095       -0.5674333710
 C         -7.0652469324       -1.0049209983        0.4962749711
 C         -5.7905383440       -0.5529866004        0.7981620352
 H         -5.5906656487        0.1151718915        1.6194932919
 H         -7.9032864113       -0.6782702735        1.0904716326
 H         -8.2489119763       -2.2252652098       -0.8002133637
 H         -6.3306705688       -2.9780836779       -2.1564790180
 H         -4.0351825626       -2.1580088919       -1.5984793106
 H         -3.8203945988        1.1285261456       -1.1533158990
 H         -2.6834970534        2.6633298608       -2.5018099531
 H         -0.5566754477        3.8318268418       -2.9434273965
 H          1.3228397210        3.6191169420       -1.4234029410
 C          1.3611123490        2.1044017689        1.0121384310
 H          0.8508511972        2.0593949093        1.9883226515
 C          2.5272337355        3.0603932811        1.2181017424
 C          3.4369376051        3.5777568754        0.1469186017
 C          2.5111233659        4.5163657851        0.8621951506
 H          2.9418750699        5.2109453132        1.5681885439
 H          1.6511487783        4.9023910281        0.3396248505
 H          4.4919352043        3.6314536439        0.3766601495
 H          3.2390462166        3.2882355542       -0.8717469962
 H          3.0194235533        2.8095463937        2.1559592946
 O          2.4343529608        1.0077434008       -1.4845088908
