  62
        -98.93875793
 C         -1.2078411142       -1.7230954979       -0.4728818292
 C         -0.3802938933       -1.8770647392        0.6636347200
 C          1.0052394259       -2.2984581511        0.4004190085
 C          1.4221756145       -2.4160116815       -0.8734363019
 C          2.8255515736       -2.7357287733       -1.3046228234
 C          3.7340093555       -1.5036082946       -1.1185752841
 C          4.8396973862       -1.6942090763       -0.0804383352
 H          5.2798112578       -0.7144465469        0.1125157245
 H          5.6191248049       -2.3298411873       -0.5057698661
 C          4.3989853067       -2.3138107259        1.2486385051
 H          5.2090165077       -2.1486865471        1.9617822243
 H          4.3002896551       -3.3944862157        1.1362185551
 C          3.0981558381       -1.7575145442        1.8403707565
 H          2.9052033491       -0.7533233538        1.4659786468
 H          3.2227979593       -1.6805034745        2.9220372164
 C          1.8538082266       -2.6291809424        1.5980736976
 H          1.1797938476       -2.5148334916        2.4521183983
 H          2.1477358051       -3.6817042828        1.5486509572
 H          3.1075398069       -0.6535939738       -0.8378766233
 H          4.1979234749       -1.2482781351       -2.0726387345
 H          3.2012606630       -3.5784862439       -0.7278698039
 H          2.7838307821       -3.0243510731       -2.3551943334
 O          0.6135475137       -2.1847114402       -1.9425072211
 C         -0.7248528957       -1.8721453184       -1.7719848497
 O         -1.3684519866       -1.7548590573       -2.8353742990
 H         -1.4400334811        0.8758974325       -0.9992651186
 C         -2.0751044301        1.0384996232       -0.1403968479
 C         -2.8024540110       -0.0248511958        0.3824772127
 C         -3.6267413896        0.2037301151        1.4761872735
 C         -3.7104587273        1.4675403052        2.0349736938
 C         -2.9866278864        2.5232831643        1.5136936832
 C         -2.1650043378        2.3063355133        0.4106766524
 N         -1.4551194168        3.3760574924       -0.1532329882
 S         -0.0603549279        3.2579445906       -1.0382087496
 O          0.2961860737        4.6346662502       -1.3117603298
 O         -0.2436909802        2.4177776510       -2.1960325895
 C          1.2203159622        2.5766470387        0.0052850790
 C          2.4597811514        2.4381274571       -0.5895622422
 C          3.5355584816        2.0178092655        0.1746834766
 C          3.3547986826        1.7423857955        1.5219055368
 C          2.1022719133        1.8702507372        2.1014706580
 C          1.0222385132        2.2940310688        1.3411360492
 H          0.0430523337        2.3894892600        1.7816108602
 H          1.9576169141        1.6392958972        3.1445277981
 H          4.1929386427        1.4246020643        2.1218920159
 H          4.5070226510        1.9118435642       -0.2811938244
 H          2.5538737407        2.6677540171       -1.6392653123
 H         -1.5198173851        4.2557214424        0.3358652620
 H         -3.0574100246        3.5093718643        1.9466885734
 H         -4.3494305362        1.6324176459        2.8890119645
 H         -4.2009527903       -0.6063763241        1.8936260440
 C         -2.6726510735       -1.3652768459       -0.2990475577
 H         -3.0794253744       -1.2609354552       -1.3161533072
 C         -3.4078234444       -2.4852549250        0.4073841829
 C         -4.8709768449       -2.6967789729        0.1637113344
 C         -3.8707407568       -3.6625484042       -0.3949628268
 H         -3.7997384477       -4.6465142944        0.0436879730
 H         -3.6765265878       -3.6442773744       -1.4579367570
 H         -5.3652315647       -2.0267547022       -0.5235953851
 H         -5.4900729645       -3.0223473722        0.9859781949
 H         -3.0181383636       -2.6796897357        1.3997214025
 O         -0.7796143518       -1.6871246588        1.8420497504
