  62
        -98.93920077
 C          1.5249991793        1.3263765306        0.2668939917
 C          2.1349278589        0.3601176103        1.1076375415
 C          3.2328795996       -0.4113062091        0.5158034419
 C          3.5940664705       -0.1850897782       -0.7599649877
 C          4.7049328312       -0.8787216874       -1.5007482373
 C          4.2977160820       -2.2250971972       -2.1155230784
 C          4.0896581016       -3.3633102078       -1.1152040292
 H          4.0207214023       -4.2873390275       -1.6928251099
 H          4.9674088911       -3.4460726980       -0.4735680886
 C          2.8280633209       -3.2264056087       -0.2506739201
 H          2.1515480711       -2.5003849086       -0.7086916802
 H          2.2997536611       -4.1822206888       -0.2245889911
 C          3.0939200797       -2.8135274495        1.1973075903
 H          3.6564747295       -3.6003483997        1.7043326203
 H          2.1323396293       -2.7034136101        1.7048644497
 C          3.8584604592       -1.4915727194        1.3452702917
 H          3.8070935284       -1.1811016900        2.3915123819
 H          4.9041809595       -1.6272661289        1.0707018324
 H          5.0898863826       -2.5196704266       -2.8077986580
 H          3.3851541024       -2.0808818871       -2.6991589990
 H          5.5558516108       -1.0237386376       -0.8345361967
 H          5.0062701117       -0.2092260669       -2.3093613566
 O          2.9726043408        0.7368371121       -1.5415860876
 C          1.9034242503        1.4898057316       -1.0664634480
 O          1.3982780107        2.2393517819       -1.9223049079
 O          1.7690878981        0.1466478495        2.2926581911
 C          0.3581520587        2.1060312100        0.8415866513
 C         -0.8464578106        2.0106398702       -0.0614423397
 C         -1.6764145807        3.0831220102       -0.3610481297
 C         -2.8078475700        2.9051411704       -1.1402059806
 C         -3.1399379593        1.6579862806       -1.6369297216
 C         -2.3088352493        0.5834323306       -1.3561678217
 C         -1.1830515699        0.7615112104       -0.5696790807
 H         -0.5463603199       -0.0866837995       -0.3455745808
 N         -2.6659858486       -0.7079418492       -1.8278000827
 S         -3.7739257891       -1.4710209701       -0.8239731740
 O         -3.8806000484       -2.8310374698       -1.3008376549
 O         -4.9862102693       -0.6945748304       -0.8129286445
 C         -2.9962178703       -1.4330335109        0.7803540666
 C         -3.1645104512       -0.3186979014        1.5778319171
 C         -2.4452771222       -0.2273321919        2.7588289477
 C         -1.5710771022       -1.2416831719        3.1174924878
 C         -1.4186425413       -2.3571180914        2.3084022672
 C         -2.1301629203       -2.4522893508        1.1234618666
 H         -2.0341357696       -3.2996010304        0.4626471962
 H         -0.7371795513       -3.1436283614        2.5915738573
 H         -0.9955331129       -1.1578994223        4.0256456483
 H         -2.5580111529        0.6405122677        3.3885940882
 H         -3.8491929912        0.4516306286        1.2614567071
 H         -1.8667591883       -1.3175305189       -1.9364049625
 H         -4.0269250389        1.4966322507       -2.2272424324
 H         -3.4405538701        3.7509601903       -1.3620116206
 H         -1.4354447212        4.0662258800        0.0082374411
 H          0.1082025681        1.5576731194        1.7670759407
 C          0.6907131380        3.5298704398        1.2651675824
 C          2.1080108177        3.9810264101        1.4503877137
 C          1.2913242084        4.5247855406        0.3187406834
 H          0.9597364281        5.5515713204        0.3734352738
 H          1.5113390693        4.1868247212       -0.6814269766
 H          2.3342472769        4.6290085896        2.2839848943
 H          2.8951088581        3.2782727704        1.2173951439
 H         -0.0245694227        3.9183782992        1.9832676121
