  62
        -98.94177763
 C         -0.5842137476       -1.4700391823        0.0327670683
 C         -1.3467217362       -0.7545005549        0.9818910017
 C         -2.4165732503        0.1119340410        0.4536810281
 C         -2.5751240740        0.2224576474       -0.8784756127
 C         -3.5621841063        1.0155395409       -1.7100073563
 C         -4.7350893600        1.7342567571       -1.0496218679
 C         -5.8256580287        0.8042726635       -0.5148468361
 H         -6.5360740822        1.3996225475        0.0625185795
 H         -6.3638017135        0.3798055012       -1.3661759529
 C         -5.3400576439       -0.3616256526        0.3432252486
 H         -4.6657222439       -0.9918227813       -0.2399033903
 H         -6.2094811393       -0.9727874064        0.6005588116
 C         -4.6480246719        0.0297972654        1.6466630725
 H         -4.4643245005       -0.8871790164        2.2136081052
 H         -5.3119057244        0.6612442360        2.2407265731
 C         -3.3026287658        0.7546030067        1.4821716390
 H         -3.4540015898        1.8075101909        1.2630148719
 H         -2.7640894227        0.6876024957        2.4321448192
 H         -4.3792273040        2.3981595922       -0.2676966195
 H         -5.1907874210        2.3642695273       -1.8181581031
 H         -2.9627007255        1.7478986765       -2.2595405435
 H         -3.9500666272        0.3174315822       -2.4590113322
 O         -1.7519772974       -0.4230838621       -1.7571105815
 C         -0.7670663785       -1.2992649686       -1.3379036903
 O         -0.1379955081       -1.8469843758       -2.2624118404
 O         -1.1502844766       -0.8394930257        2.2251234827
 C          0.4803469092       -2.4404965998        0.5084563343
 C          1.8219161100       -2.0767924220       -0.0763966537
 C          2.6940295147       -3.0038857000       -0.6316608604
 C          3.9062022157       -2.5937413222       -1.1590974411
 C          4.2765088207       -1.2622215218       -1.1363632322
 C          3.4138907524       -0.3270041277       -0.5745684316
 C          2.2025385926       -0.7411533796       -0.0470669674
 H          1.5362656793       -0.0143189918        0.3953808123
 N          3.7374069246        1.0360260386       -0.5661455606
 S          3.1898697068        2.0430287015        0.6428599466
 O          4.0078885904        3.2312193929        0.5142872505
 O          3.2240865993        1.3986870780        1.9354767547
 C          1.5177317808        2.4591187546        0.1972688929
 C          1.1872376359        2.6181648041       -1.1335038796
 C         -0.0986980680        3.0184061228       -1.4586537551
 C         -1.0223487711        3.2648411173       -0.4547936857
 C         -0.6752891430        3.0979800966        0.8762173601
 C          0.6055465677        2.6885524905        1.2077655925
 H          0.9113631985        2.5323889642        2.2302406732
 H         -1.3928401232        3.2840038330        1.6587919802
 H         -2.0178867200        3.5911493963       -0.7105569864
 H         -0.3730563156        3.1400102112       -2.4945204015
 H          1.9287426168        2.4207317511       -1.8900068288
 H          4.6632317561        1.2734253626       -0.8889708300
 H          5.2195435021       -0.9437227695       -1.5535221851
 H          4.5729930311       -3.3226796957       -1.5942288178
 H          2.4230284371       -4.0463958870       -0.6597084863
 H          0.5366725419       -2.3073945159        1.5996738857
 C          0.0557502577       -3.8640908453        0.2106838131
 C          0.5058131202       -4.9907717703        1.0906363158
 C         -0.9209892713       -4.5347796725        1.1277615057
 H         -1.6795627024       -5.1717154018        0.6980787698
 H         -1.2580481540       -3.9732234530        1.9869505371
 H          0.7251669938       -5.9451407609        0.6360111356
 H          1.1373701423       -4.7464336415        1.9314863574
 H         -0.0462049944       -4.0516144424       -0.8526606277
