  62
        -98.94385609
 C         -1.8850420711       -0.6093748271        0.7654280484
 C         -2.2721538409        0.4954457381       -0.0306358213
 C         -3.7157380131        0.7617358816       -0.0864875080
 C         -4.5676746853       -0.0083473948        0.6147190275
 C         -6.0617893261        0.1573936191        0.6824377242
 C         -6.8170771942       -0.4993695531       -0.4809817070
 C         -6.6868963030        0.2155948867       -1.8263729319
 H         -7.4323424707       -0.2202965684       -2.4944454761
 H         -6.9376816103        1.2695484039       -1.7024948204
 C         -5.3039423430        0.0873173560       -2.4802322070
 H         -5.4222569832       -0.1630966703       -3.5369107657
 H         -4.7556925590       -0.7356711374       -2.0160090376
 C         -4.4485637842        1.3524567392       -2.4085609446
 H         -4.9243900923        2.1501772586       -2.9834992709
 H         -3.4800121981        1.1388739979       -2.8683433087
 C         -4.1929188569        1.8629507496       -0.9843611545
 H         -3.4053698224        2.6196600490       -1.0273981128
 H         -5.0962647513        2.3204022476       -0.5810865145
 H         -6.4737782356       -1.5314363050       -0.5820825799
 H         -7.8747307683       -0.5258516572       -0.2089210750
 H         -6.3844823074       -0.3154862380        1.6124605588
 H         -6.3109920845        1.2179407977        0.7270181492
 O         -4.1508613769       -1.0472401797        1.3865891365
 C         -2.8090255721       -1.3834522262        1.4670339727
 O         -2.5681340927       -2.3688401476        2.1936227186
 O         -1.4596746586        1.2256460961       -0.6563162027
 C         -0.4196990580       -0.9896809457        0.8721107622
 C          0.3971516413        0.1851621538        1.3513447197
 C         -0.0653202330        0.9356500213        2.4293210623
 C          0.6499500155        2.0230208989        2.8907470001
 C          1.8454204933        2.3810436123        2.2932722964
 C          2.3279517489        1.6261668248        1.2307125714
 C          1.6098573492        0.5287944873        0.7737002917
 H          1.9927778712       -0.0331705464       -0.0612113986
 N          3.5637521663        1.9371746010        0.6555178271
 S          4.0422010940        1.4353479111       -0.8577354706
 O          5.2370250924        2.2110953637       -1.1186507732
 O          2.9946310905        1.5471392819       -1.8448163760
 C          4.5013526625       -0.2716462871       -0.6354024367
 C          4.3246543203       -1.1478415359       -1.6877986653
 C          4.7214214316       -2.4677039174       -1.5388671053
 C          5.2842152678       -2.8876280570       -0.3438586669
 C          5.4565610732       -1.9952611719        0.7030641731
 C          5.0673420376       -0.6731894554        0.5582815261
 H          5.1879290512        0.0436059595        1.3530634344
 H          5.8933658821       -2.3253165896        1.6318208789
 H          5.5884753647       -3.9159078708       -0.2287334972
 H          4.5889097188       -3.1622843394       -2.3532474230
 H          3.8713594139       -0.7815264311       -2.5956235455
 H          3.9799245810        2.8111833181        0.9367870397
 H          2.4002278039        3.2371688276        2.6452167584
 H          0.2716304334        2.6023855347        3.7196516939
 H         -1.0039383641        0.6614775435        2.8920055402
 H         -0.3660248192       -1.7787546826        1.6369364639
 C          0.0628626711       -1.5588645475       -0.4464645465
 C          1.1288897348       -2.6115345853       -0.4711937976
 C         -0.2892071967       -2.9732457584       -0.7932122812
 H         -0.5456062018       -3.2051640145       -1.8160970610
 H         -0.8556535970       -3.5330442652       -0.0629872403
 H          1.8497651328       -2.5945730718       -1.2744767760
 H          1.5329829567       -2.9365536957        0.4754935430
 H          0.0466125185       -0.8265901364       -1.2468456314
