  62
        -98.93780468
 C         -2.6133362408       -1.0054537392        0.4929960702
 C         -2.9168584908        0.1666219415        1.2354543190
 C         -4.2316699907        0.7691242913        0.9978486585
 C         -5.0782867407        0.1920849905        0.1261995390
 C         -6.4726103707        0.6558264903       -0.1974422415
 C         -6.5347968507        1.7637082793       -1.2574929125
 C         -6.0630993106        3.1398044797       -0.7864403038
 H         -6.3623965106        3.8600266790       -1.5504783945
 H         -6.5843894706        3.4058418306        0.1336357859
 C         -4.5469192406        3.2491418599       -0.5720816839
 H         -4.1795810806        4.1696711794       -1.0314076148
 H         -4.0459980106        2.4196067994       -1.0769532931
 C         -4.1126964107        3.2701581712        0.8936199261
 H         -3.0209548707        3.3122342112        0.9255834061
 H         -4.4992268206        4.1701111517        1.3771190252
 C         -4.5638867607        2.0484189720        1.7047558172
 H         -4.0272493307        2.0511588929        2.6566068972
 H         -5.6336243207        2.1046101722        1.9056301072
 H         -5.9452064007        1.4528552984       -2.1231102622
 H         -7.5756796007        1.8496078990       -1.5779455426
 H         -6.9656769807        0.9950840011        0.7140680182
 H         -7.0082639707       -0.2160361601       -0.5791590507
 O         -4.7553806407       -0.9313088301       -0.5636677100
 C         -3.5175718908       -1.5450023700       -0.4225557094
 O         -3.3783749808       -2.5422603507       -1.1577258584
 O         -2.1249525008        0.6764250523        2.0731642586
 C         -1.2567500308       -1.6363414690        0.7547840208
 C         -0.2331603208       -1.2218521800       -0.2765125296
 C         -0.3881495807       -1.5387443512       -1.6217602493
 C          0.5732450693       -1.1654194921       -2.5434308796
 C          1.7053184193       -0.4756852818       -2.1467412503
 C          1.8726892593       -0.1589114305       -0.8055796806
 C          0.9056313793       -0.5351757196        0.1189764598
 H          1.0323157092       -0.2753403186        1.1614150195
 N          3.0154912793        0.5506172098       -0.3980757912
 S          4.4913778793        0.0882008091       -1.0814076207
 O          4.6480769593        0.7808830480       -2.3360120114
 O          4.5767585493       -1.3532148609       -1.1408886694
 C          5.6470429293        0.7292649202        0.1139660587
 C          6.1190959292       -0.1089172888        1.1064393095
 C          7.0028124592        0.3968797320        2.0466591090
 C          7.3949549493        1.7254750520        1.9803020978
 C          6.9125284693        2.5542430510        0.9781394970
 C          6.0295184193        2.0548564302        0.0339502474
 H          5.6372996394        2.6585675094       -0.7677346932
 H          7.2224015793        3.5856272510        0.9287766360
 H          8.0838505393        2.1162090626        2.7124587974
 H          7.3820937092       -0.2458037472        2.8248164296
 H          5.7951648392       -1.1374288388        1.1131507304
 H          3.0797732793        0.6342584508        0.6070740387
 H          2.4643667993       -0.1862816825       -2.8560727905
 H          0.4409306693       -1.4162627431       -3.5855318594
 H         -1.2704457208       -2.0739278815       -1.9378027388
 H         -0.9374235308       -1.2239274181        1.7217278704
 C         -1.3021683308       -3.1474706189        0.8739931022
 C         -0.2058348309       -3.8487928782        1.6160333529
 C         -1.5810209009       -3.7709743676        2.2070217928
 H         -2.1826649209       -4.6666977975        2.2396228536
 H         -1.7392616009       -3.1083738568        3.0455356122
 H          0.1420851391       -4.7992644985        1.2418152538
 H          0.5701536991       -3.2400278278        2.0550362023
 H         -1.7124074708       -3.6363098097        0.0004010727
