  62
        -98.94362526
 C         -1.7122899597       -1.1049581411       -0.5544697185
 C         -1.8471085296       -0.0683416500        0.4009431904
 C         -3.2148556895        0.1807886405        0.8752198703
 C         -4.2293900496       -0.5806294999        0.4270098312
 C         -5.6718416195       -0.4670266594        0.8405885612
 C         -6.4604492496        0.6015337798        0.0711797302
 C         -6.1240986295        2.0476763202        0.4372927086
 H         -6.8944758995        2.6783309598       -0.0110588820
 H         -6.1909285793        2.1720367914        1.5185868085
 C         -4.7494296895        2.5219624596       -0.0544597221
 H         -4.3866631196        1.8435335088       -0.8299921314
 H         -4.8481641595        3.5084244691       -0.5130581231
 C         -3.6881614494        2.6347233507        1.0401251577
 H         -2.7476217494        2.9393426102        0.5747186173
 H         -3.9790234793        3.4090285515        1.7534445269
 C         -3.4342861093        1.3319471115        1.8098105490
 H         -4.2657403493        1.1240432523        2.4829555194
 H         -2.5244741693        1.4541233821        2.4024105188
 H         -6.3014975897        0.4496916387       -0.9989620997
 H         -7.5204728896        0.4342797401        0.2761211705
 H         -5.7317052694       -0.2651399782        1.9104635810
 H         -6.1287280496       -1.4394850896        0.6443861323
 O         -4.0501085297       -1.5899197309       -0.4674507378
 C         -2.7967229298       -1.8647384015       -0.9908762876
 O         -2.7775129400       -2.8020426024       -1.8153634066
 O         -0.8830337495        0.6107785004        0.8370261595
 C         -0.3428787998       -1.4287181117       -1.1243632484
 C          0.5920453903       -1.8121079406       -0.0032730481
 C          0.1955487203       -2.7957812096        0.8995923230
 C          1.0131870404       -3.1547364585        1.9531249933
 C          2.2390252305       -2.5377537784        2.1340108725
 C          2.6459564404       -1.5576590894        1.2366054114
 C          1.8289487103       -1.2134634505        0.1674812612
 H          2.1691268903       -0.4695704412       -0.5308647897
 N          3.8533688705       -0.8830624092        1.4257882506
 S          4.6308089104       -0.0136877805        0.2430025296
 O          4.7355487902       -0.7586929218       -0.9904602896
 O          5.8877032705        0.3630289801        0.8542262290
 C          3.6269772305        1.4365915893       -0.0048152219
 C          3.4958997003        1.9408595079       -1.2836292624
 C          2.7165720504        3.0684486077       -1.4846927435
 C          2.0858366205        3.6706174489       -0.4071040541
 C          2.2335603806        3.1566231703        0.8716423365
 C          3.0131147106        2.0303804604        1.0792231276
 H          3.1369533307        1.6021666215        2.0598360980
 H          1.7353356408        3.6233534812        1.7058894860
 H          1.4717544605        4.5432290288       -0.5657469149
 H          2.5989185603        3.4691398467       -2.4791046639
 H          3.9938403002        1.4320163970       -2.0941406019
 H          4.4506150006       -1.2069256785        2.1693309009
 H          2.8718614606       -2.8078662875        2.9653901127
 H          0.6929428805       -3.9192520978        2.6451684942
 H         -0.7673574097       -3.2704264097        0.7651105636
 H         -0.4792713799       -2.3060156424       -1.7735149074
 C          0.1581979001       -0.2707596227       -1.9623468896
 C          1.1303824500       -0.5111152039       -3.0764107695
 C         -0.2918391400       -0.1549163341       -3.3863035897
 H         -0.5034497400        0.8268562354       -3.7821348707
 H         -0.9434754301       -0.9288445545       -3.7657798588
 H          1.8977304700        0.2256123359       -3.2593391604
 H          1.4518579799       -1.5271519941       -3.2496897085
 H          0.2524238203        0.6465866079       -1.3917250106
