  62
        -98.94842879
 C         -0.7816909979       -1.2292431812        0.0792756416
 C         -1.5253217211       -0.6630644090        1.1409884986
 C         -2.4053171226        0.4563057427        0.7811407887
 C         -2.4398567765        0.8818139912       -0.4952085368
 C         -3.3917781936        1.9141299319       -1.0255972221
 C         -4.6919814534        1.2612756515       -1.5183174806
 C         -5.3211684685        0.2919002424       -0.5178159460
 H         -4.6597578278       -0.5676715125       -0.3874469350
 H         -6.2465726651       -0.0798331654       -0.9630409620
 C         -5.6264585494        0.9063202012        0.8553674090
 H         -6.6268285446        0.5963207150        1.1647982761
 H         -5.6331412432        1.9944422937        0.7824536080
 C         -4.6651632251        0.4796700213        1.9661570297
 H         -4.5911123016       -0.6105930941        1.9891617990
 H         -5.0856430927        0.7986427125        2.9237547246
 C         -3.2459432120        1.0547248892        1.8735822125
 H         -2.7312662040        0.8213843779        2.8107190853
 H         -3.2948538795        2.1408116525        1.7721718153
 H         -4.4756168172        0.7105863044       -2.4364123437
 H         -5.4053872355        2.0523982130       -1.7561439985
 H         -2.9186979690        2.4249506975       -1.8643917301
 H         -3.6133232953        2.6371938450       -0.2431514152
 O         -1.6504997447        0.3648791155       -1.4696890957
 C         -0.7998112412       -0.6988974394       -1.2106738283
 O         -0.1318495544       -1.0738516974       -2.1914451800
 O         -1.4712277127       -1.0863348876        2.3283218165
 C          0.0686893991       -2.4571627301        0.3473044488
 C          1.5066255161       -2.2054465842       -0.0264813651
 C          2.2549524576       -3.0674856777       -0.8174367845
 C          3.5723104998       -2.7718285103       -1.1215215912
 C          4.1679675503       -1.6187642474       -0.6465219904
 C          3.4305707951       -0.7561335973        0.1583195984
 C          2.1135037556       -1.0558655073        0.4650295753
 H          1.5499368409       -0.3870415587        1.1001959113
 N          4.0154317781        0.4100934149        0.6688487558
 S          3.1137152034        1.7257612308        1.1276585824
 O          4.0744187290        2.8090602459        1.1758635968
 O          2.4223201576        1.4579385465        2.3647972328
 C          1.9353071743        2.0710942777       -0.1672782223
 C          2.2263165510        1.7838340820       -1.4852058249
 C          1.3235193512        2.1591857005       -2.4670440373
 C          0.1636806141        2.8323816460       -2.1206559628
 C         -0.1130820673        3.1179065023       -0.7930115808
 C          0.7755355684        2.7264405548        0.1939958062
 H          0.5898378835        2.9116401335        1.2404199834
 H         -1.0157360013        3.6407047857       -0.5208257345
 H         -0.5298830430        3.1305680196       -2.8910132333
 H          1.5277973177        1.9221630282       -3.4985468850
 H          3.1361634447        1.2654800870       -1.7402998097
 H          4.9147677326        0.6610666332        0.2875776825
 H          5.1932885632       -1.3850506882       -0.8886548848
 H          4.1413734739       -3.4463542286       -1.7428562354
 H          1.8065590656       -3.9683201680       -1.2019364771
 H          0.0233322625       -2.6128394752        1.4359190527
 C         -0.5384634465       -3.6617064156       -0.3431940367
 C         -0.3470288428       -5.0360954177        0.2228293488
 C         -1.6856632654       -4.3687413915        0.3117151086
 H         -2.4892396984       -4.7350842616       -0.3095270218
 H         -2.0118433009       -3.9979211068        1.2727169509
 H         -0.2342299323       -5.8648812005       -0.4596618111
 H          0.2341642645       -5.1268685811        1.1279889017
 H         -0.5717208484       -3.5496970058       -1.4213480775
