  62
        -98.94089291
 C         -2.2858167890       -0.9233041903       -0.2230588013
 C         -3.6041328377       -1.2009849576        0.2128979686
 C         -4.6542845800       -0.3344835023       -0.3327588418
 C         -4.3306548144        0.6353611769       -1.2074844410
 C         -5.2913181624        1.5850525191       -1.8705452375
 C         -5.6388828116        2.8145830925       -1.0200136418
 C         -6.5548751526        2.5414784877        0.1736450958
 H         -6.8890356131        3.5107527594        0.5488994928
 H         -7.4390879753        2.0008356875       -0.1651157690
 C         -5.8864817945        1.7717901089        1.3213893621
 H         -4.8007956078        1.8188234331        1.2073582588
 H         -6.1289127594        2.2523739606        2.2718929335
 C         -6.3100554919        0.3071251132        1.4333409197
 H         -5.7514063569       -0.1493855827        2.2543376909
 H         -7.3731050859        0.2508300052        1.6773120732
 C         -6.0546070641       -0.5229468772        0.1682720273
 H         -6.1780744534       -1.5790103567        0.4198437104
 H         -6.7747360218       -0.2604809642       -0.6061564085
 H         -4.7093333627        3.2701692531       -0.6706021738
 H         -6.1355026112        3.5339147305       -1.6752508462
 H         -4.8060044606        1.9266136224       -2.7873605089
 H         -6.2057274123        1.0547028716       -2.1376218971
 O         -3.0524154296        0.8587749858       -1.6158254231
 C         -1.9973070480        0.1065807914       -1.1180103116
 O         -0.8790536781        0.4471075477       -1.5509946632
 O         -3.8878070125       -2.1260873822        1.0198769618
 C         -1.1434687316       -1.7627355379        0.3214099570
 C         -0.1866094598       -0.8737250126        1.0761573302
 C         -0.6773576240       -0.1389996528        2.1535893001
 C          0.1472902265        0.7108298156        2.8630323756
 C          1.4772351063        0.8521242736        2.5065824971
 C          1.9801833719        0.1172735901        1.4401517036
 C          1.1515788873       -0.7497323282        0.7393582914
 H          1.5630266099       -1.3014831928       -0.0878715417
 N          3.3432646018        0.2141026010        1.0964845568
 S          3.7971495833        0.3628513633       -0.5247478843
 O          3.2382865404        1.5698380689       -1.0937811059
 O          3.5229264508       -0.8710742967       -1.2139094952
 C          5.5596310773        0.5508690231       -0.3175330849
 C          6.3193682196       -0.5785583336       -0.0789375426
 C          7.6849105626       -0.4399030771        0.1112977858
 C          8.2654351210        0.8188537005        0.0607231470
 C          7.4908761429        1.9429942275       -0.1821903176
 C          6.1240710932        1.8109539448       -0.3719476013
 H          5.4837540972        2.6549913487       -0.5727234936
 H          7.9450755656        2.9198634069       -0.2248879260
 H          9.3286546133        0.9239868535        0.2083024052
 H          8.2908220838       -1.3119514019        0.2973575166
 H          5.8255855660       -1.5358759984       -0.0571285141
 H          3.8080284581        0.9393595612        1.6287895792
 H          2.1209522544        1.5257521075        3.0523433265
 H         -0.2477641991        1.2758303235        3.6940566796
 H         -1.7205921790       -0.2415758976        2.4207565554
 H         -1.6082997612       -2.4549739674        1.0392630794
 C         -0.4933300943       -2.5707546626       -0.7801933391
 C          0.2339855597       -3.8379392951       -0.4473404064
 C         -1.0838921661       -3.8947756928       -1.1581704287
 H         -1.0981950423       -4.1729111923       -2.2013239756
 H         -1.9504609491       -4.2265351623       -0.6049958075
 H          1.1300505128       -4.0742937284       -1.0010576150
 H          0.2638603897       -4.1365808703        0.5896129510
 H         -0.0998256792       -1.9525147840       -1.5802598889
