  62
        -98.93752361
 C         -2.2308720899       -0.8016434690       -0.0652739207
 C         -3.2808586899       -0.7489375597        0.8848420193
 C         -4.2284261999        0.3634476904        0.7430622801
 C         -4.0344756200        1.2813401010       -0.2207534394
 C         -4.8713844200        2.5068968311       -0.4759749086
 C         -6.3211221400        2.2545800613       -0.9343628087
 C         -7.3515277900        2.2463208706        0.2017194114
 H         -6.9580671900        2.8277183401        1.0364164617
 H         -8.2532105300        2.7589270208       -0.1395164383
 C         -7.7855854699        0.8645897903        0.7003259505
 H         -8.4975719699        0.4371100407       -0.0093721497
 H         -8.3094662399        1.0015522697        1.6487337906
 C         -6.6659900499       -0.1579379798        0.8962717499
 H         -7.0764467098       -1.0129143001        1.4370827394
 H         -6.3396841299       -0.5357089592       -0.0756561504
 C         -5.4287969499        0.3758815898        1.6443552001
 H         -5.6120110799        1.3788408196        2.0266271108
 H         -5.1925634498       -0.2768338707        2.4869982597
 H         -6.5794341301        3.0612673918       -1.6222325682
 H         -6.3668465100        1.3231652417       -1.4981563292
 H         -4.3427432101        3.0629591116       -1.2529814683
 H         -4.8782070400        3.1214574206        0.4270824718
 O         -2.9879024400        1.2176902116       -1.0886286095
 C         -2.0739934900        0.1746619216       -1.0487883901
 O         -1.1949103700        0.2388609221       -1.9304764801
 O         -3.4185071098       -1.5927534302        1.8097625488
 C         -1.2397459499       -1.9502752891        0.0262165685
 C          0.1051130701       -1.3947892892        0.4225176888
 C          0.3396294602       -1.0773262101        1.7579794090
 C          1.5404938102       -0.5170832602        2.1490632193
 C          2.5305620401       -0.2535759596        1.2175937494
 C          2.2984270301       -0.5476985688       -0.1185222908
 C          1.0978543801       -1.1296574886       -0.5066409711
 H          0.9276674201       -1.3426017180       -1.5499423912
 N          3.2916308700       -0.2850821382       -1.0757230607
 S          4.1496088700        1.1526099618       -0.9937484498
 O          3.3707089200        2.2201075114       -0.4096320591
 O          4.6396003299        1.3747337126       -2.3369512897
 C          5.5293615101        0.7524633312        0.0610637799
 C          6.2593350901       -0.3851869486       -0.2233165309
 C          7.3428003101       -0.7035291391        0.5796328089
 C          7.6792937501        0.1179518903        1.6452766194
 C          6.9394196201        1.2588044801        1.9152973301
 C          5.8533537001        1.5821579105        1.1165322004
 H          5.2453560000        2.4553655404        1.2931215909
 H          7.2022582201        1.8967903096        2.7437785605
 H          8.5228697402       -0.1324022001        2.2689938292
 H          7.9201027201       -1.5902210189        0.3727367583
 H          5.9666218701       -0.9960195781       -1.0607629312
 H          2.9982024900       -0.4760527677       -2.0229635408
 H          3.4649401701        0.1938362202        1.5143320396
 H          1.7100640802       -0.2804253909        3.1884993894
 H         -0.4399583498       -1.2665617805        2.4827672089
 H         -1.6038058998       -2.5797630696        0.8494314182
 C         -1.2149354999       -2.7751581183       -1.2434503920
 C         -0.5752673498       -4.1303887383       -1.2254861628
 C         -2.0645847998       -4.0058115983       -1.3328774727
 H         -2.5362139199       -4.2375602477       -2.2761750628
 H         -2.6635237198       -4.2622088488       -0.4714347028
 H         -0.0221781099       -4.4518084877       -2.0947340531
 H         -0.1610119298       -4.4705413988       -0.2886419131
 H         -1.1169893399       -2.1775876677       -2.1419965316
