  62
        -98.94118348
 C         -1.7013055767       -0.2038453891        0.2075245323
 C         -2.8380393977       -0.9826497029       -0.1205709088
 C         -3.9869994564       -0.2410830293       -0.6596429904
 C         -3.9042101540        1.0862755182       -0.8561019604
 C         -4.9806596648        1.9696913432       -1.4257842521
 C         -6.0186530281        2.4340650477       -0.3948229917
 C         -6.9954553734        1.3560114382        0.0766106835
 H         -7.4484487044        0.8734533890       -0.7900280828
 H         -7.7943700774        1.8635500409        0.6209783747
 C         -6.3721631300        0.2936578510        0.9928172802
 H         -7.0263567053        0.1235787900        1.8509707264
 H         -5.4211456281        0.6623296754        1.3839967575
 C         -6.1394441591       -1.0616356656        0.3250357225
 H         -7.0992319877       -1.5036942334        0.0483346541
 H         -5.6607485970       -1.7236243875        1.0511543913
 C         -5.2495307254       -1.0053409340       -0.9233444990
 H         -5.7960790728       -0.5624148240       -1.7555622308
 H         -4.9700853845       -2.0270619052       -1.1916949387
 H         -6.5953560578        3.2402712316       -0.8540817307
 H         -5.4927569255        2.8510419317        0.4671077678
 H         -4.4773938137        2.8512408847       -1.8286047532
 H         -5.4845336779        1.4533708674       -2.2433578391
 O         -2.7812902015        1.7949722557       -0.5657085910
 C         -1.6733265079        1.1778106943       -0.0128036801
 O         -0.7311221588        1.9561544024        0.2374625591
 H          2.0929738113       -0.0724881534        0.2221257023
 C          1.7637637010       -0.9057519937       -0.3795875353
 C          0.4723209891       -1.3897370690       -0.2320477483
 C          0.0571188282       -2.4494593817       -1.0311559946
 C          0.9228753349       -3.0072246711       -1.9536568812
 C          2.2197726156       -2.5404612109       -2.0784739275
 C          2.6446671033       -1.4832742444       -1.2829153338
 N          3.9493471892       -0.9823437780       -1.3868172226
 S          4.7665953300       -0.4640176131       -0.0217406977
 O          6.1653269732       -0.5673506881       -0.3790548648
 O          4.3549411817       -1.1927366985        1.1548132110
 C          4.3379161874        1.2565383628        0.1274861991
 C          3.8292171500        1.7373431168        1.3171134130
 C          3.5201112892        3.0842854624        1.4194515641
 C          3.7263621363        3.9227732927        0.3353820765
 C          4.2420659770        3.4252911470       -0.8518750971
 C          4.5528348886        2.0797349597       -0.9599279598
 H          4.9587769035        1.6573632295       -1.8639593251
 H          4.3999029278        4.0820157730       -1.6922592934
 H          3.4815457067        4.9699895250        0.4173777728
 H          3.1153650545        3.4719622855        2.3406058432
 H          3.6801413325        1.0501547385        2.1356274287
 H          4.5514564181       -1.4850344496       -2.0222065837
 H          2.8992795838       -2.9896693876       -2.7869806079
 H          0.5892704687       -3.8260516965       -2.5732978826
 H         -0.9477033113       -2.8272815620       -0.9225241003
 C         -0.4322150466       -0.7806573408        0.8126098283
 H          0.1024128918        0.0750579194        1.2472693888
 C         -0.6899773284       -1.7899703728        1.9168132662
 C          0.4432436767       -2.1653122061        2.8223048664
 C         -0.6913117760       -1.3360974861        3.3437108351
 H         -1.3900129837       -1.7919309070        4.0293041285
 H         -0.5112947810       -0.2882232204        3.5362595854
 H          1.3991978240       -1.6894737075        2.6562100052
 H          0.5213765487       -3.1912399317        3.1487064818
 H         -1.3886815255       -2.5665505968        1.6355026053
 O         -2.9177105667       -2.2326133497        0.0143549119
