  62
        -98.94689227
 C         -1.4829002398       -1.5952779794       -0.4349670906
 C         -1.2631251667       -0.3322285083       -1.0389445209
 C         -2.3181004126        0.6716560656       -0.8325582120
 C         -3.3852480814        0.3730139797       -0.0721116626
 C         -4.5028274971        1.3191207734        0.2575684063
 C         -4.2324125624        2.0791332654        1.5629642362
 C         -2.8459826862        2.7198678634        1.6363055669
 H         -2.7933011000        3.2717148341        2.5779862968
 H         -2.0826852817        1.9385524979        1.6866710377
 C         -2.5180476509        3.6648283449        0.4721559568
 H         -3.4367680023        3.9730792294       -0.0290885839
 H         -2.0499769464        4.5646023878        0.8773631368
 C         -1.5449499968        3.0775645102       -0.5517436623
 H         -0.6930632146        2.6397805853       -0.0247503516
 H         -1.1692331211        3.8926104122       -1.1761299424
 C         -2.1257372300        2.0102443865       -1.4871528723
 H         -3.0615565717        2.3668690509       -1.9226310031
 H         -1.4056523485        1.8494716404       -2.2946713218
 H         -4.3294449389        1.3811298551        2.3978195264
 H         -4.9960838970        2.8514524310        1.6752429554
 H         -5.4200403238        0.7383527581        0.3715314759
 H         -4.6292396207        2.0218726723       -0.5637463940
 O         -3.5512648448       -0.8385496810        0.5174432377
 C         -2.6101943589       -1.8392075956        0.3551539087
 O         -2.8909508031       -2.9011472471        0.9496118289
 O         -0.2516944380       -0.0314814827       -1.7279395904
 C         -0.5178237129       -2.7661348038       -0.5484761896
 C          0.5951979458       -2.6507916170        0.4653498811
 C          0.9217632613       -3.7099843548        1.3037808817
 C          1.9365298099       -3.5794656086        2.2356779123
 C          2.6272330329       -2.3876410446        2.3638291024
 C          2.3062808073       -1.3230943867        1.5291098318
 C          1.3136171988       -1.4696091728        0.5729300812
 H          1.0738520745       -0.6417640444       -0.0721426693
 N          2.9833092702       -0.0980485828        1.6181408918
 S          2.1696069520        1.3450372024        1.3665807408
 O          2.8881384058        2.3133301769        2.1723258309
 O          0.7595983225        1.2236914044        1.6598628099
 C          2.4293311307        1.7601172433       -0.3463988992
 C          3.0327323064        0.8858460765       -1.2250463385
 C          3.2006177550        1.2771421070       -2.5445208485
 C          2.7696842380        2.5259940244       -2.9604647792
 C          2.1773697224        3.3987063113       -2.0613352599
 C          2.0081419237        3.0145059408       -0.7419191599
 H          1.5579840594        3.6646855684       -0.0083436404
 H          1.8446135669        4.3728023492       -2.3826813805
 H          2.8955281870        2.8214610848       -3.9902797392
 H          3.6628298094        0.5995660295       -3.2445261980
 H          3.3564298518       -0.0834462915       -0.8833902679
 H          3.6430952692       -0.0213579987        2.3778406323
 H          3.4042330118       -2.2781196098        3.1051206929
 H          2.1820967043       -4.4089208470        2.8814898028
 H          0.3637925267       -4.6322373981        1.2349738617
 H         -1.1044664679       -3.6612608471       -0.2994539997
 C          0.0553680691       -2.9404462610       -1.9423665891
 C          0.5591549171       -4.2875387482       -2.3606062783
 C         -0.7050290856       -3.7424126957       -2.9533008994
 H         -0.6976087768       -3.4138626361       -3.9815238195
 H         -1.6440062633       -4.1771118411       -2.6416468599
 H          1.4389240478       -4.3369166533       -2.9833547977
 H          0.4764649914       -5.0970620284       -1.6513286281
 H          0.5868127442       -2.0669395480       -2.2956490991
