  62
        -98.93405941
 C          1.6669370965        1.4392201277       -0.1093134355
 C          0.8184153976        2.1365503526       -1.0014570392
 C         -0.4384701389        2.6805726351       -0.4522805117
 C         -0.6726043195        2.5573925116        0.8669792201
 C         -1.8848409962        2.9875248295        1.6495871326
 C         -3.0796945212        2.0410381359        1.4567439030
 C         -3.3495990627        1.6323443545        0.0110817881
 H         -2.4749266382        1.1236489536       -0.4007129221
 H         -4.1617548762        0.8994275686        0.0187792012
 C         -3.7588873796        2.7715029243       -0.9206496408
 H         -4.6546202286        3.2557386475       -0.5246708253
 H         -4.0206863671        2.3189242660       -1.8808081338
 C         -2.6972415338        3.8439468305       -1.1793710099
 H         -2.6306956013        4.5441713687       -0.3507850983
 H         -3.0249778435        4.4214381371       -2.0487664898
 C         -1.3146338394        3.2948119086       -1.5156476845
 H         -1.4128529687        2.5309650115       -2.2972419722
 H         -0.7161974378        4.0955312309       -1.9672821797
 H         -3.9684771543        2.5214714938        1.8695582070
 H         -2.8894867673        1.1287635840        2.0271953449
 H         -2.1550863598        4.0074484963        1.3931751346
 H         -1.5976322338        2.9736469148        2.7031897409
 O          0.2149053332        1.9506620717        1.7050581781
 C          1.3623034163        1.3209412410        1.2466390200
 O          1.9947144537        0.7170671218        2.1296917354
 O          1.0903608981        2.2875313047       -2.2242823172
 C          2.8639456954        0.6939647243       -0.6905057826
 C          2.6018243823       -0.7696423176       -0.4260336227
 C          3.2317348777       -1.5954668675        0.4956599610
 C          2.7944510963       -2.8964645319        0.6891423002
 C          1.7032024029       -3.3963234727        0.0050679662
 C          1.0536495927       -2.5781923221       -0.9127489289
 C          1.5255473564       -1.2973275051       -1.1395229727
 H          1.0075751326       -0.6741328852       -1.8550830898
 N         -0.0887536365       -3.0224440977       -1.6107828787
 S         -1.5011180420       -2.1328607270       -1.4608124638
 O         -2.5200619066       -2.9569241738       -2.0736532135
 O         -1.3211113449       -0.8177259894       -2.0164907909
 C         -1.7880242826       -2.0313430208        0.2950203142
 C         -1.0594197167       -1.1158393301        1.0259468195
 C         -1.2174977009       -1.0722917605        2.4016548559
 C         -2.1062951017       -1.9390385448        3.0192919939
 C         -2.8374026539       -2.8496783123        2.2706676160
 C         -2.6730596209       -2.9048782323        0.8958599736
 H         -3.2187253641       -3.5966884824        0.2747297422
 H         -3.5299608372       -3.5188117851        2.7553704633
 H         -2.2286882227       -1.9009591118        4.0902644271
 H         -0.6346397694       -0.3647681808        2.9714653497
 H         -0.3806307499       -0.4503294119        0.5156964233
 H         -0.2959269778       -4.0013485129       -1.4671423111
 H          1.3506993128       -4.4011792882        0.1816435928
 H          3.3018163659       -3.5212922878        1.4083558324
 H          4.0489652257       -1.2350003660        1.0929457423
 H          2.7609877302        0.8347431832       -1.7793553336
 C          4.1783870571        1.3626116604       -0.3263626047
 C          4.8887654789        1.2638451529        0.9879989777
 C          5.4949922663        0.6505107023       -0.2392282945
 H          6.3590866427        1.1328952328       -0.6718164318
 H          5.5008709955       -0.4227042110       -0.3401497751
 H          5.3350815268        2.1684756812        1.3762944533
 H          4.4597195257        0.6422001116        1.7556909858
 H          4.2074592228        2.3474229870       -0.7885848565
