  62
        -98.93787468
 C          2.5310745555        0.8346599694        0.6933558817
 C          3.5624313709        0.8849732965       -0.2765835026
 C          4.7426712905        0.0549921944        0.0033853889
 C          4.7901683709       -0.7028363933        1.1129698004
 C          5.9340282504       -1.5813223783        1.5416661662
 C          5.9399182871       -2.9691579769        0.8861822009
 C          6.3320071235       -2.9897989697       -0.5917476487
 H          7.2732153639       -2.4553850940       -0.7244644311
 H          6.5090078012       -4.0328629559       -0.8615042715
 C          5.2702394160       -2.4094171503       -1.5364111451
 H          5.1396375368       -3.0763498526       -2.3916080342
 H          4.3087937393       -2.3612611927       -1.0196420453
 C          5.6035629135       -1.0239755711       -2.0894773140
 H          4.7684390808       -0.6936498531       -2.7122740955
 H          6.4918930350       -1.0855329035       -2.7221308562
 C          5.8437802593        0.0432804185       -1.0141285573
 H          6.8062786889       -0.1201867549       -0.5300021144
 H          5.8572912446        1.0218268034       -1.5002442704
 H          6.6533297564       -3.5858615507        1.4377122365
 H          4.9507477014       -3.4168210081        1.0067183888
 H          6.8788939810       -1.0771360367        1.3365086454
 H          5.8368263151       -1.7113661699        2.6216856872
 O          3.7714230965       -0.7387479851        2.0127699654
 C          2.6272537940        0.0139446622        1.8219091679
 O          1.7733923491       -0.1217024529        2.7226168488
 H         -1.1591662264        0.6503026073        1.2704639302
 C         -0.9678936692        0.5372470144        0.2108877302
 C          0.2398809527        0.9768826016       -0.3109177092
 C          0.4764727450        0.8113868736       -1.6712574018
 C         -0.4765041540        0.2192156939       -2.4800114704
 C         -1.6817036865       -0.2159757544       -1.9560324171
 C         -1.9276402677       -0.0542545443       -0.5999627489
 N         -3.1571646912       -0.4977613238       -0.0550882659
 S         -4.5267433397        0.3640909006       -0.5518673109
 O         -4.5817250229        0.3547900581       -1.9902366025
 O         -4.5478296638        1.6673974302        0.0800512453
 C         -5.8289792784       -0.6548961669        0.1113904088
 C         -6.5791522285       -0.2050864017        1.1801413327
 C         -7.5818702292       -1.0186267571        1.6847513887
 C         -7.8128843921       -2.2618440493        1.1164032004
 C         -7.0494590350       -2.7001113150        0.0441543790
 C         -6.0469617023       -1.8911965850       -0.4658083244
 H         -5.4343901726       -2.1880402502       -1.3007925782
 H         -7.2333053338       -3.6673909325       -0.3949929758
 H         -8.5940679410       -2.8926908684        1.5102856278
 H         -8.1777289322       -0.6797440606        2.5169661547
 H         -6.3677924268        0.7709162914        1.5867482374
 H         -3.1322695276       -0.4700126896        0.9572025149
 H         -2.4362829646       -0.6600138157       -2.5837642479
 H         -0.2793731307        0.0951271319       -3.5343252047
 H          1.4163662631        1.1446844125       -2.0839937290
 C          1.2480978012        1.6443791492        0.5942208872
 H          0.8267195474        1.6510233698        1.6088944253
 C          1.4754798172        3.0818077271        0.1660196085
 C          0.4035409740        4.0924425686        0.4372157009
 C          1.6874999521        4.1345522919        1.2095396027
 H          2.3881971328        4.9296292737        1.0038627557
 H          1.6704029695        3.8246210103        2.2445793344
 H         -0.4878812293        3.7549427706        0.9454575124
 H          0.2202076254        4.8585915674       -0.3004364115
 H          2.0333021182        3.1742111897       -0.7558767917
 O          3.5303869596        1.5811713795       -1.3251604195
