  62
        -98.94835091
 C          0.8487155321        1.2143675167        0.5333842612
 C          1.2467153328        0.5462143584       -0.6491952815
 C          2.1807345681       -0.5733878705       -0.4615229079
 C          2.4823938342       -0.9761305224        0.7856540132
 C          3.4692706284       -2.0561513695        1.1220018314
 C          4.8708948802       -1.4689903382        1.3434251918
 C          5.3215388785       -0.5110948900        0.2399745071
 H          4.6844606303        0.3762908470        0.2568707792
 H          6.3333108605       -0.1836912396        0.4893552939
 C          5.3132239893       -1.1152084870       -1.1714314890
 H          6.2397899420       -0.8336078888       -1.6761163782
 H          5.2979486388       -2.2037061986       -1.1074395274
 C          4.1600357631       -0.6426387625       -2.0592915140
 H          4.3746445210       -0.9506763893       -3.0858162317
 H          4.1136120455        0.4491081381       -2.0482378644
 C          2.7742262906       -1.1916304184       -1.6951922448
 H          2.0886410589       -0.9452183500       -2.5104676212
 H          2.8282522135       -2.2765971462       -1.6005027498
 H          4.8721491445       -0.9236814852        2.2902096056
 H          5.5819731555       -2.2930684379        1.4259112369
 H          3.1437714786       -2.5503336162        2.0391905935
 H          3.4978204105       -2.7847412122        0.3142837175
 O          1.9566642120       -0.4007053021        1.8990556277
 C          1.1767095708        0.7406103477        1.8028663765
 O          0.8383984464        1.2286475986        2.9014138285
 O          0.8655934234        0.8804196536       -1.7999689179
 C          0.0320002570        2.4905709802        0.4430061316
 C         -1.2865593412        2.2319178063       -0.2421884129
 C         -1.7634892303        2.9919451862       -1.3020797391
 C         -2.9945636876        2.7082097125       -1.8672891090
 C         -3.7732070593        1.6717601872       -1.3877416336
 C         -3.3092448310        0.9127335468       -0.3182991998
 C         -2.0739927262        1.1941044804        0.2421172857
 H         -1.7235132414        0.6077617892        1.0799205130
 N         -4.0906198217       -0.1244140278        0.2099164551
 S         -3.3952291361       -1.4508612895        0.9308394386
 O         -4.4443468302       -2.4499475997        0.9128973630
 O         -2.8840170240       -1.1127617729        2.2359477973
 C         -2.0721313788       -1.9966218896       -0.1333673153
 C         -0.9247183933       -2.4968099059        0.4459478041
 C          0.0584800820       -3.0372761110       -0.3664443778
 C         -0.1164022257       -3.0557323564       -1.7408092663
 C         -1.2652616676       -2.5307693337       -2.3099185466
 C         -2.2588862009       -2.0048289016       -1.5011309810
 H         -3.1677650598       -1.6064837064       -1.9213924735
 H         -1.3923315893       -2.5345557352       -3.3803901498
 H          0.6467233824       -3.4811474817       -2.3726827714
 H          0.9515513331       -3.4433864724        0.0802468966
 H         -0.8216124926       -2.4506272833        1.5193484365
 H         -4.9247982610       -0.3545435863       -0.3087936685
 H         -4.7343517421        1.4528958964       -1.8268417979
 H         -3.3516584994        3.3022278413       -2.6945951903
 H         -1.1714597868        3.8045429426       -1.6886890259
 H         -0.1851227252        2.7838281370        1.4810565596
 C          0.8561002602        3.5813173714       -0.2104496211
 C          0.6044762324        5.0198997922        0.1235891627
 C          1.8421146470        4.3394585135        0.6245062890
 H          2.7925907761        4.6065080047        0.1872880403
 H          1.9008901857        4.0866672133        1.6736699225
 H          0.7086627422        5.7580314174       -0.6572219278
 H         -0.1762956462        5.2380272514        0.8365147682
 H          1.1483974270        3.3326959694       -1.2241230717
