  62
        -98.93948009
 C         -2.4981817397       -0.9388756196       -0.1033186598
 C         -3.6270606796       -1.0695979797        0.7394987103
 C         -4.9026202297       -0.6022930796        0.1818318705
 C         -4.9296802998       -0.1025197795       -1.0674935295
 C         -6.1488306098        0.4620971406       -1.7363821893
 C         -6.2703203398        1.9720865106       -1.4874603291
 C         -6.1157616496        2.3713715404       -0.0198949591
 H         -5.0941982296        2.1560625004        0.3023142308
 H         -6.2478876296        3.4540115604        0.0381655110
 C         -7.1034762995        1.6839854104        0.9332850409
 H         -7.5067203395        2.4324485903        1.6186947410
 H         -7.9424626896        1.2777729504        0.3672204209
 C         -6.4899965395        0.5774680502        1.7932800207
 H         -7.2099770594        0.3134962002        2.5725220408
 H         -5.5935690694        0.9552564302        2.2919391807
 C         -6.1217486296       -0.7147959497        1.0534760306
 H         -5.8824021695       -1.4715024398        1.8064142605
 H         -6.9790624596       -1.0647966696        0.4751204306
 H         -7.2419284498        2.3057079707       -1.8563611390
 H         -5.4943045298        2.4815392806       -2.0635078391
 H         -7.0326566098       -0.0505709594       -1.3617694693
 H         -6.0646552699        0.2858280807       -2.8099610193
 O         -3.8273984898       -0.0111191794       -1.8547322196
 C         -2.5830409098       -0.4159540495       -1.3936217597
 O         -1.6566995499       -0.2664812494       -2.2123595098
 O         -3.5689557195       -1.5505856398        1.9038353502
 C         -1.1438069597       -1.3862851597        0.4122689501
 C         -0.1599282296       -0.2417299497        0.3947808401
 C         -0.5644028596        1.0087799602        0.8544062903
 C          0.3107709405        2.0774897302        0.8652662503
 C          1.6138545704        1.9234533402        0.4263223102
 C          2.0354736404        0.6769421703       -0.0133439300
 C          1.1527008103       -0.3971665497       -0.0221371300
 H          1.4962691703       -1.3593299497       -0.3690952002
 N          3.3589248403        0.5130681303       -0.4564838901
 S          4.5703008404        1.2609519202        0.4547948498
 O          4.2930251205        1.1041974100        1.8647252598
 O          4.7208938504        2.6174561402       -0.0096820200
 C          5.9990178803        0.3000370002       -0.0057987104
 C          6.7081072002        0.6491831503       -1.1393668004
 C          7.8050869302       -0.1152737697       -1.5040462006
 C          8.1719521402       -1.2094967698       -0.7347485908
 C          7.4508256603       -1.5469881299        0.4008620293
 C          6.3522835504       -0.7874520499        0.7709450194
 H          5.7695886105       -1.0062505500        1.6514833695
 H          7.7404514504       -2.3960835100        0.9988453591
 H          9.0274102102       -1.8012901198       -1.0198690709
 H          8.3703218901        0.1452081604       -2.3842984906
 H          6.3918894602        1.5127981504       -1.7007747403
 H          3.5824591403       -0.4518056997       -0.6581251203
 H          2.3092841304        2.7476541402        0.4292646902
 H         -0.0229090395        3.0420223002        1.2187040904
 H         -1.5812685595        1.1342081002        1.2016969804
 H         -1.3119088596       -1.6716089798        1.4621505400
 C         -0.6722335997       -2.6064322496       -0.3517298001
 C          0.1876335403       -3.6366387197        0.3164504097
 C         -1.2452872297       -3.9442323697        0.0045381498
 H         -1.4646122698       -4.6400665796       -0.7912631703
 H         -1.9529844697       -3.9768202397        0.8199994098
 H          0.9521545802       -4.1280833797       -0.2666140904
 H          0.4558237304       -3.4706846199        1.3490362197
 H         -0.5042408198       -2.3972025595       -1.4024393601
