  62
        -98.93675579
 C         -2.3537011340       -1.2887723651       -0.0959492440
 C         -3.1402106738       -0.6014413123        0.8572932846
 C         -3.9945831607        0.4768852829        0.3374456199
 C         -3.9764978680        0.7478238825       -0.9806909626
 C         -4.7242181570        1.8656190366       -1.6505596177
 C         -3.9997376949        3.2049060422       -1.4061865880
 C         -4.7902593926        4.2045849175       -0.5616784073
 H         -4.1055462358        5.0068050137       -0.2780623450
 H         -5.5768912909        4.6452545682       -1.1775813713
 C         -5.4467172129        3.6396515699        0.7017498253
 H         -5.7341692115        4.4931975914        1.3193784666
 H         -6.3701313627        3.1229081847        0.4364219416
 C         -4.5803604266        2.6937010054        1.5435091993
 H         -4.7727416657        2.9046676230        2.5975570547
 H         -3.5208708441        2.8863814141        1.3713201581
 C         -4.8691231751        1.1960542542        1.3272925873
 H         -4.7101564672        0.6706762351        2.2738458680
 H         -5.9187069160        1.0634640130        1.0507586245
 H         -3.0434115922        2.9939527245       -0.9224128174
 H         -3.7689405661        3.6739853272       -2.3637355177
 H         -4.7565554977        1.6405934845       -2.7166419720
 H         -5.7427443261        1.9062253178       -1.2711080212
 O         -3.1968468783        0.0723434742       -1.8641752169
 C         -2.3641964853       -0.9575927451       -1.4508499121
 O         -1.7019815865       -1.4817482766       -2.3646647944
 O         -3.1242181291       -0.8734707402        2.0896033166
 C         -1.4443606229       -2.4110914824        0.3686127566
 C         -0.0041069973       -2.0885634648        0.0517450013
 C          0.8843828288       -3.0103255372       -0.4856810534
 C          2.1977907412       -2.6529889856       -0.7389836177
 C          2.6544474616       -1.3779912674       -0.4622878795
 C          1.7787251702       -0.4516609240        0.0893097186
 C          0.4661246577       -0.8144612643        0.3469479938
 H         -0.2139537201       -0.0906438232        0.7809027423
 N          2.2306296957        0.8510099372        0.3679542411
 S          3.6175053616        1.0201592171        1.3014097991
 O          3.7851316749       -0.0947268170        2.2045439320
 O          3.5054634804        2.3284425683        1.9088938624
 C          4.9389582511        1.0455728581        0.1091377819
 C          5.9746388015        0.1374292376        0.2093812330
 C          6.9984393408        0.1835400578       -0.7241981421
 C          6.9683410209        1.1317659000       -1.7352441432
 C          5.9218552408        2.0381918987       -1.8204032084
 C          4.8961768628        1.9985649014       -0.8895738567
 H          4.0676307856        2.6865503047       -0.9180085398
 H          5.9015909500        2.7740096739       -2.6081454822
 H          7.7651915471        1.1652889505       -2.4613354176
 H          7.8129725810       -0.5198112400       -0.6595758178
 H          5.9523161108       -0.5852366071        1.0094135821
 H          1.5046904922        1.4659030483        0.7062788879
 H          3.6738189421       -1.0940759829       -0.6665600717
 H          2.8747133116       -3.3785210099       -1.1634533254
 H          0.5479000887       -4.0087423803       -0.7111840030
 H         -1.5504641601       -2.4395887744        1.4639683731
 C         -1.9090925089       -3.7362382845       -0.1982412140
 C         -1.6723669947       -5.0083257263        0.5580459595
 C         -3.0554509287       -4.4403924142        0.4615057878
 H         -3.7798999286       -4.9429452546       -0.1615115747
 H         -3.4822405011       -3.9765029914        1.3389866876
 H         -1.4491927995       -5.9055177311        0.0006482156
 H         -1.1615452326       -4.9388379416        1.5066283975
 H         -1.8603294206       -3.7642636091       -1.2809287163
