  62
        -98.92897626
 C         -2.6145718642       -0.9602359578        0.6809155227
 C         -2.9185135960        0.3316299907        1.1773134706
 C         -4.2491225036        0.8790398825        0.8649219612
 C         -5.1023996120        0.1459044167        0.1260563193
 C         -6.5263133530        0.4135353488       -0.3153218879
 C         -7.1295642970        1.8107502402       -0.1992384533
 C         -6.5135332452        2.8518797831       -1.1333830292
 H         -6.7988618383        2.6085821499       -2.1600080384
 H         -6.9435437957        3.8261415380       -0.8910567893
 C         -4.9909732220        2.9565187528       -1.0925263797
 H         -4.6890734098        3.7220211344       -1.8126144625
 H         -4.5485170275        2.0143308288       -1.4228528256
 C         -4.3968243043        3.3348275814        0.2627106705
 H         -4.8537653427        4.2600687616        0.6191792102
 H         -3.3303931674        3.5237986207        0.1123995992
 C         -4.5260820371        2.2681093432        1.3635006185
 H         -3.7687213832        2.4758272658        2.1250169663
 H         -5.4982357997        2.3158636863        1.8483796830
 H         -8.1864837916        1.7162550901       -0.4629533536
 H         -7.0922406298        2.1521799311        0.8309991289
 H         -6.5817166457        0.0847655381       -1.3579880563
 H         -7.1491669521       -0.2813985108        0.2588270738
 O         -4.7670849156       -1.0943407489       -0.3314896755
 C         -3.5300178615       -1.6771155736       -0.0882957118
 O         -3.4013495241       -2.8012064341       -0.6049674553
 O         -2.1081118311        0.9998962278        1.8750417033
 C         -1.2403825192       -1.5090971772        1.0180510914
 C         -0.2371836009       -1.1410519704       -0.0455859513
 C         -0.4821803992       -1.3972271688       -1.3907701546
 C          0.4564867779       -1.0595006206       -2.3489366832
 C          1.6491131086       -0.4548455186       -1.9916073877
 C          1.9020266939       -0.1898226887       -0.6523633545
 C          0.9608673898       -0.5387669340        0.3090439807
 H          1.1546671517       -0.3208913953        1.3509686078
 N          3.0987597424        0.4527826856       -0.2754342372
 S          4.5495767896       -0.2097291341       -0.8370190465
 O          4.6569776406        0.0470268939       -2.2501670860
 O          4.6504297272       -1.5960371925       -0.4349233678
 C          5.7275248485        0.7866382605        0.0526754558
 C          5.9375169866        2.0853356783       -0.3706208855
 C          6.8324901956        2.8797668972        0.3276370848
 C          7.4978732786        2.3656364372        1.4310141243
 C          7.2769949496        1.0601563181        1.8427723007
 C          6.3818677309        0.2602042827        1.1495844667
 H          6.1839278007       -0.7620188751        1.4298216702
 H          7.7972818846        0.6629099626        2.6994323763
 H          8.1946528244        2.9860260437        1.9722756702
 H          7.0084444262        3.8949053623        0.0102388521
 H          5.4037342717        2.4396381677       -1.2368193714
 H          3.1528278463        0.5703869483        0.7283517471
 H          2.3871003702       -0.1943422638       -2.7323834294
 H          0.2567800139       -1.2677043228       -3.3896811671
 H         -1.4116123939       -1.8680293451       -1.6749818269
 H         -0.9492572462       -0.9786410954        1.9389603244
 C         -1.2437568774       -2.9963790900        1.3409581677
 C         -0.6671977778       -4.0472508012        0.4459188174
 C          0.0342203833       -3.6861026359        1.7187311070
 H          0.0221788861       -4.3895037874        2.5373508048
 H          0.9502539520       -3.1198468967        1.6346315809
 H         -1.1887035404       -4.9899958144        0.3840218256
 H         -0.2202981758       -3.7394927862       -0.4862219223
 H         -2.1306503753       -3.2820133036        1.8977959995
