  62
        -98.94596317
 C         -1.1923037484       -0.9588216099       -0.5065164658
 C         -2.2980041652       -1.2302462237        0.3404296091
 C         -3.0742253499       -0.0735191578        0.8015587761
 C         -2.6815465831        1.1618860057        0.4426334608
 C         -3.3956782235        2.4302862439        0.8090157891
 C         -4.4320675019        2.8149933661       -0.2561574295
 C         -5.3586892663        1.6671959261       -0.6569249042
 H         -6.0665383011        2.0610261221       -1.3893471653
 H         -4.7713801585        0.8949630422       -1.1587009400
 C         -6.1292850909        1.0364701940        0.5112278406
 H         -6.1226870328        1.7117257498        1.3676331366
 H         -7.1709159327        0.9020346152        0.2122439990
 C         -5.6101642948       -0.3355732159        0.9453618143
 H         -5.5251055918       -0.9881472819        0.0728837154
 H         -6.3484086028       -0.7816120013        1.6171202597
 C         -4.2639187958       -0.3384283023        1.6810179326
 H         -4.2947025512        0.3720938876        2.5100939880
 H         -4.1122092606       -1.3398716169        2.0946652716
 H         -5.0249626036        3.6484804204        0.1249756077
 H         -3.9012945985        3.1543283614       -1.1484879268
 H         -3.8810847454        2.2996130499        1.7744690565
 H         -2.6559787251        3.2285217576        0.8930601061
 O         -1.6042430618        1.3900198765       -0.3458577080
 C         -0.8316066346        0.3472585888       -0.8405216333
 O          0.1135317034        0.7339786036       -1.5550298083
 H          1.5372345908       -0.4155153380       -0.2009824180
 C          1.6540464860       -1.3740987703        0.2773938921
 C          0.7656327892       -2.4002550664       -0.0095331718
 C          0.9428360496       -3.6306243202        0.6118783612
 C          1.9764711428       -3.8205109401        1.5121115859
 C          2.8330689723       -2.7817287902        1.8290483003
 C          2.6625967432       -1.5475822106        1.2120529905
 N          3.4987970328       -0.4618182173        1.5101585659
 S          2.8405772151        1.0796546984        1.5731880873
 O          3.7564735699        1.8196919926        2.4208004140
 O          1.4653855356        1.0573011025        2.0188206331
 C          2.9810607984        1.7190200110       -0.0799543359
 C          2.0893998317        2.6885100331       -0.4893095782
 C          2.2300910486        3.2374934905       -1.7534029570
 C          3.2544058476        2.8080806776       -2.5811714830
 C          4.1429140858        1.8333260418       -2.1540805587
 C          4.0107777139        1.2835548266       -0.8895540801
 H          4.6789738496        0.5196467279       -0.5278962300
 H          4.9354356587        1.4975367245       -2.8036483943
 H          3.3565207568        3.2325747277       -3.5676769282
 H          1.5319061438        3.9876144155       -2.0886514629
 H          1.2932513008        2.9802857299        0.1776281078
 H          4.1579026922       -0.6181527467        2.2591231205
 H          3.6218742147       -2.9190528224        2.5529541275
 H          2.1042174065       -4.7806954578        1.9884621395
 H          0.2519568263       -4.4338047103        0.4023568325
 C         -0.3827280445       -2.1620236743       -0.9616601334
 H         -1.0650426023       -3.0195404070       -0.8805719549
 C          0.1165504277       -2.0776895277       -2.3902389796
 C          0.4439893013       -3.3441590557       -3.1210176757
 C         -0.7655786551       -2.5475364155       -3.5062058967
 H         -0.7527037789       -1.9998630317       -4.4362935724
 H         -1.7382151418       -2.9380350241       -3.2437749017
 H          0.2900943190       -4.2774492800       -2.6010460304
 H          1.2916203103       -3.3468879855       -3.7885151002
 H          0.7370789277       -1.2112622532       -2.5766401847
 O         -2.6254606215       -2.3975910557        0.6892106799
