  62
        -98.94106967
 C         -2.1976002404       -0.9808415905        0.6758959905
 C         -2.2184835905       -0.1127461112       -0.4444069301
 C         -3.1087673808        1.0522784487       -0.3288316810
 C         -3.7704198509        1.2850896193        0.8180207988
 C         -4.6969146412        2.4385017393        1.0915529079
 C         -6.1320969411        2.2154960586        0.5950313280
 C         -6.3137137810        2.2803881375       -0.9220103321
 H         -7.3875577710        2.3251588772       -1.1137403122
 H         -5.8766937112        3.2053735074       -1.2995153627
 C         -5.7264261807        1.0835077671       -1.6830615812
 H         -6.4502013405        0.7302296465       -2.4207685811
 H         -5.5513970405        0.2595329277       -0.9874405007
 C         -4.4274778707        1.3836448469       -2.4315843513
 H         -4.0829899304        0.4607291367       -2.9052053007
 H         -4.6190954008        2.1142423963       -3.2204888519
 C         -3.2937224809        1.9119791978       -1.5425136616
 H         -2.3624703908        1.8830145076       -2.1143416215
 H         -3.4919975711        2.9438256079       -1.2525639223
 H         -6.7564311513        2.9892677388        1.0475975974
 H         -6.4825578909        1.2484731388        0.9632551486
 H         -4.7231039813        2.5657469600        2.1760591678
 H         -4.2922243014        3.3474394391        0.6451874273
 O         -3.6462981008        0.4793222201        1.9068076993
 C         -2.8768583406       -0.6725112698        1.8570675502
 O         -2.8634071705       -1.3212269391        2.9229797506
 H          0.3219558194       -0.4975600592        1.7166145303
 C          0.7681101396       -0.9946653197        0.8626316507
 C          0.0278090699       -1.9534331703        0.1812560113
 C          0.6024451701       -2.5742657509       -0.9190586082
 C          1.8820403300       -2.2348566909       -1.3230807583
 C          2.6159340198       -1.2822993503       -0.6407097589
 C          2.0483758195       -0.6507667697        0.4584595006
 N          2.7884383893        0.3084337410        1.1722508900
 S          3.5763442391        1.5202180806        0.3182134092
 O          3.7240293188        2.6055801113        1.2645304585
 O          2.9013541391        1.8354296196       -0.9190959711
 C          5.1810479393        0.8236658407       -0.0153859102
 C          5.9164170193        0.3433822516        1.0505903902
 C          7.1697308894       -0.1962716783        0.8096945107
 C          7.6651208195       -0.2433844891       -0.4850033792
 C          6.9164913195        0.2472529700       -1.5437473396
 C          5.6612516994        0.7873769599       -1.3097215001
 H          5.0404011094        1.1748637792       -2.1019484604
 H          7.3034712196        0.2109978294       -2.5494183296
 H          8.6407333296       -0.6644046390       -0.6698510289
 H          7.7548487994       -0.5785275676        1.6305394010
 H          5.4964096692        0.4018166222        2.0408008101
 H          2.2909340791        0.6982384814        1.9598659197
 H          3.6102355297       -1.0128716203       -0.9573035890
 H          2.3141075002       -2.7187103614       -2.1857430780
 H          0.0390801603       -3.3031085514       -1.4777526378
 C         -1.3626063901       -2.2503173203        0.6879405214
 H         -1.2765392301       -2.5203197695        1.7537383816
 C         -2.0204873498       -3.4349471109       -0.0039422978
 C         -3.5132090198       -3.5520566213       -0.0762432479
 C         -2.7193347497       -3.3120827819       -1.3232824380
 H         -2.6226540395       -4.1229266124       -2.0306026574
 H         -2.7559773599       -2.3365510323       -1.7808059286
 H         -4.0984556900       -2.7366903211        0.3244493515
 H         -3.9598305296       -4.5234397613        0.0739896828
 H         -1.4770196796       -4.3575711806        0.1749051228
 O         -1.5414822904       -0.2873097718       -1.4893032600
