  62
        -98.94173488
 C          2.2511163787        0.7569095753        0.0738618961
 C          3.4271806597        1.0417800816        0.8177005756
 C          4.3559880969       -0.0754741250        1.0286793506
 C          4.0271883654       -1.2958966319        0.5689408420
 C          4.8968046399       -2.5146586832        0.6708597836
 C          5.7996849829       -2.6577654581       -0.5625244808
 C          6.5515950205       -1.3784718307       -0.9302824857
 H          7.1785095618       -1.6075259784       -1.7947590453
 H          5.8313762285       -0.6210801206       -1.2483654819
 C          7.4232660384       -0.8072907235        0.1968949113
 H          7.6033614557       -1.5746994063        0.9505237916
 H          8.3933598174       -0.5270336652       -0.2188430530
 C          6.8503198700        0.4405421335        0.8714968029
 H          6.5827708846        1.1780536647        0.1104515616
 H          7.6347448673        0.8816616261        1.4920166323
 C          5.6301082367        0.2114009498        1.7722806837
 H          5.8454228890       -0.5849838639        2.4875394250
 H          5.4495570955        1.1350760284        2.3298206872
 H          6.5145107131       -3.4610535114       -0.3751953425
 H          5.1790103647       -2.9473150002       -1.4138543143
 H          5.5028172640       -2.4475279129        1.5723987647
 H          4.2513114751       -3.3918253928        0.7420097248
 O          2.8684972420       -1.5465188689       -0.0889457553
 C          1.9546796550       -0.5348113206       -0.3662893901
 O          0.9569551374       -0.9311318904       -0.9976066291
 H         -0.7997621839        1.0153234696       -1.6777236506
 C         -1.0471139023        1.0660941946       -0.6288324391
 C         -0.0990683369        1.5126592529        0.2771979358
 C         -0.4263681948        1.5363425708        1.6295642993
 C         -1.6746052773        1.1275777999        2.0596848334
 C         -2.6166795775        0.6743836645        1.1525586774
 C         -2.2912589450        0.6263466137       -0.1958758580
 N         -3.2330486098        0.1543145500       -1.1248835795
 S         -4.1238555305       -1.2182487051       -0.7540387631
 O         -3.4196089551       -2.1076242858        0.1398065190
 O         -4.5162536647       -1.7670689153       -2.0343381555
 C         -5.5716678833       -0.5638339029        0.0545318307
 C         -5.9556525031       -1.0583853984        1.2855433013
 C         -7.0904690080       -0.5424913196        1.8921296749
 C         -7.8188974248        0.4528778040        1.2593003113
 C         -7.4224578841        0.9365095975        0.0213198009
 C         -6.2894669039        0.4244703448       -0.5903390049
 H         -5.9498416714        0.7706419487       -1.5520677861
 H         -7.9916842403        1.7103717814       -0.4679721211
 H         -8.7009185915        0.8534257720        1.7335346081
 H         -7.4000879887       -0.9185058247        2.8540510606
 H         -5.3552786942       -1.8294536064        1.7421452880
 H         -2.8706655622        0.0969109467       -2.0659377350
 H         -3.5856751073        0.3374492596        1.4825196838
 H         -1.9169947735        1.1559026978        3.1112153185
 H          0.3159618008        1.8698182713        2.3416392021
 C          1.2877904024        1.9097848529       -0.1563038508
 H          1.6453163679        2.6980037685        0.5257049732
 C          1.3249957915        2.5031409844       -1.5569387276
 C          2.6305176769        2.6700322388       -2.2739776024
 C          1.6120939582        1.6993048564       -2.7880914640
 H          1.0793097602        1.9502100543       -3.6941928981
 H          1.7994779714        0.6430485891       -2.6746427236
 H          3.5128614775        2.2743004612       -1.7921889772
 H          2.8051192160        3.5793249882       -2.8288538496
 H          0.6076503743        3.3111327056       -1.6657719989
 O          3.6871587607        2.1821508632        1.2851860659
