  62
        -98.93603389
 C         -1.5796588945       -1.5737366798        0.4679109879
 C         -1.6875383221       -0.3672502988        1.2021668262
 C         -2.8945151443        0.4506340101        0.9864109947
 C         -3.8240823869        0.0070575609        0.1199647995
 C         -5.0926792094        0.7038410659       -0.2879014099
 C         -4.8421237880        1.8331456041       -1.3078430922
 C         -3.5498631681        2.6227854478       -1.1022122263
 H         -2.7126479089        1.9237319272       -1.0496464204
 H         -3.3950751478        3.2440808197       -1.9881302253
 C         -3.5342389140        3.5423296757        0.1177403247
 H         -2.5458927073        4.0056232058        0.1769733606
 H         -4.2643723432        4.3410051012       -0.0345059822
 C         -3.8416024968        2.8793743273        1.4595397404
 H         -3.6917017350        3.6335856103        2.2381014839
 H         -4.8889955072        2.5927949635        1.5044796226
 C         -2.9470263012        1.6986334661        1.8338659465
 H         -3.2195664616        1.3723100847        2.8457576624
 H         -1.9102488762        2.0446916161        1.9116270581
 H         -4.7916910282        1.3795380894       -2.3001378242
 H         -5.6945563847        2.5136380464       -1.2915109987
 H         -5.6027449605        1.0752314684        0.5966990170
 H         -5.7348537025       -0.0479053694       -0.7512048271
 O         -3.6838948722       -1.1595685088       -0.5645678622
 C         -2.5731800188       -1.9775872782       -0.4247740146
 O         -2.6112579545       -2.9995032290       -1.1329237921
 O         -0.8009131834        0.0181309839        2.0131808527
 C         -0.3221956238       -2.3959859157        0.6922580044
 C          0.7279725022       -1.9877148834       -0.3088693657
 C          0.5018315458       -2.1058005140       -1.6780802445
 C          1.4669518360       -1.7049763256       -2.5826705975
 C          2.6605716004       -1.1564184295       -2.1442392028
 C          2.8892049914       -1.0205185831       -0.7810048076
 C          1.9291593397       -1.4492698619        0.1268131629
 H          2.1220006193       -1.3339986679        1.1827693837
 N          4.0837844032       -0.4524512829       -0.3014087431
 S          3.9725818502        0.8150466938        0.7925840797
 O          5.2845712796        1.4248342329        0.7724751965
 O          3.5218442139        0.3244914452        2.0680802599
 C          2.7820313745        1.9173426384        0.0530531410
 C          1.4391440073        1.7954468182        0.3464118117
 C          0.5375569675        2.6069234468       -0.3253062546
 C          0.9846156364        3.5193819616       -1.2670067612
 C          2.3388636606        3.6340773136       -1.5437065987
 C          3.2456026401        2.8217790622       -0.8839438444
 H          4.3069790374        2.8811417111       -1.0639227067
 H          2.6870259312        4.3483919736       -2.2722460220
 H          0.2735625073        4.1441439572       -1.7843384806
 H         -0.5140017336        2.5096575696       -0.1054301424
 H          1.1019093621        1.0854638903        1.0859586267
 H          4.7441807404       -0.2190408071       -1.0298953915
 H          3.4091458919       -0.8342494713       -2.8521012113
 H          1.2844069577       -1.8098719064       -3.6414178821
 H         -0.4376142360       -2.5152302431       -2.0180957933
 H          0.0384419620       -2.0892900624        1.6871626613
 C         -0.5760427378       -3.8962900532        0.7427233122
 C          0.0500165930       -4.8787503967       -0.1976828645
 C          0.5109308351       -4.8115498848        1.2250259673
 H          0.2535410020       -5.6161857348        1.8970979191
 H          1.4777699976       -4.3691800986        1.4164801296
 H         -0.5501004447       -5.7195172822       -0.5106864850
 H          0.7135621541       -4.5089381532       -0.9630824151
 H         -1.5835326415       -4.1291089342        1.0708067668
