  62
        -98.93691312
 C         -2.4274163634       -1.1873901186       -0.1822525138
 C         -2.3480704708        0.0766745060        0.4524658231
 C         -3.6356315955        0.6795680795        0.8297244805
 C         -4.7819851428        0.0080328459        0.6228472311
 C         -6.1660908334        0.4830377244        0.9727199261
 C         -6.7979918241        1.3959603016       -0.0869656487
 C         -6.2107839778        2.8057773519       -0.1645541561
 H         -6.2088569386        3.2528323462        0.8299631495
 H         -6.8830062540        3.3989146879       -0.7876246374
 C         -4.7984513148        2.8722627094       -0.7626698531
 H         -4.7492902072        3.6823107536       -1.4938546865
 H         -4.5850243411        1.9452178980       -1.3001149697
 C         -3.6879164078        3.1177613665        0.2590940545
 H         -3.8160010406        4.1045146534        0.7097283661
 H         -2.7293039143        3.1116830130       -0.2670904713
 C         -3.6190823243        2.0732758408        1.3810864397
 H         -4.4428430576        2.2170753626        2.0799393128
 H         -2.6756151153        2.2063868465        1.9165154656
 H         -7.8612229408        1.4810042903        0.1487361898
 H         -6.7115463623        0.9112673203       -1.0621948347
 H         -6.1447308833        0.9985242560        1.9331767632
 H         -6.7852909463       -0.4111972813        1.0704813335
 O         -4.8093787638       -1.2353190999        0.0728621392
 C         -3.6448634995       -1.8517571545       -0.3545584414
 O         -3.8196172602       -2.9823588292       -0.8510215598
 O         -1.2724587792        0.6801374138        0.7027966209
 C         -1.1877405004       -1.9171813661       -0.6687062070
 C         -0.0906576452       -1.8347294195        0.3645589023
 C         -0.3385276226       -2.3403701582        1.6383370543
 C          0.6277274684       -2.2765821663        2.6225585186
 C          1.8646795663       -1.7175228639        2.3550771110
 C          2.1293868689       -1.2266414935        1.0817525614
 C          1.1547722310       -1.2896400107        0.0957710739
 H          1.3746870489       -0.8746427026       -0.8726819623
 N          3.4033183612       -0.7132941595        0.7825615073
 S          3.6470544220        0.4329100078       -0.4267586033
 O          2.8974976032        1.6405011791       -0.1633997540
 O          3.4370179692       -0.1880944808       -1.7105824389
 C          5.3899977984        0.7315462509       -0.1892378390
 C          5.8039168859        1.8589394626        0.4940787340
 C          7.1605003751        2.0625121165        0.6938449417
 C          8.0752821070        1.1388059522        0.2116288123
 C          7.6450739143        0.0123794293       -0.4740516605
 C          6.2904898980       -0.1959501301       -0.6782659593
 H          5.9102385025       -1.0508023537       -1.2125040094
 H          8.3595128787       -0.7020241575       -0.8500318609
 H          9.1302163880        1.2991814002        0.3688441859
 H          7.4977019670        2.9390672244        1.2232335879
 H          5.0568465628        2.5533258272        0.8439389501
 H          3.9302596938       -0.4754370980        1.6117879331
 H          2.6183200106       -1.6605991868        3.1258065141
 H          0.4159656453       -2.6601589466        3.6095335716
 H         -1.3100255332       -2.7680452874        1.8491254677
 H         -1.4920474353       -2.9745625153       -0.7496255982
 C         -0.7315347341       -1.4895068712       -2.0560950566
 C         -1.6964232499       -0.9381590145       -3.0616277361
 C         -0.6532183445       -0.0486366402       -2.4584865146
 H          0.1801366813        0.2668437760       -3.0703409007
 H         -0.9560910661        0.6891093410       -1.7319174773
 H         -1.5865816383       -1.2366538196       -4.0932944883
 H         -2.7230766493       -0.8062022674       -2.7516649433
 H          0.0442822638       -2.1415003510       -2.4471336901
