  62
        -98.93678122
 C         -2.2299706305       -1.0636560096       -0.0893407009
 C         -3.3125316803       -0.8836591305        0.8041681694
 C         -4.2991918304        0.1547855298        0.4566776206
 C         -4.0954646406        0.9044629408       -0.6414002588
 C         -4.9496626707        2.0132969013       -1.2026807576
 C         -5.5251566806        3.0235108304       -0.1982520766
 C         -7.0363385005        2.8917982202        0.0012338736
 H         -7.4270678405        3.8509633098        0.3482215045
 H         -7.4971602307        2.6837492610       -0.9666834965
 C         -7.4697805103        1.8259994892        1.0062897627
 H         -7.2244919902        2.1607363883        2.0164877329
 H         -8.5572957004        1.7396104092        0.9477206028
 C         -6.8556953303        0.4409713594        0.7946483613
 H         -6.8248402705        0.1953845804       -0.2663151790
 H         -7.5099523602       -0.2912673110        1.2723858207
 C         -5.4560009202        0.2892144989        1.4090387109
 H         -5.2562904501        1.1185662983        2.0934221616
 H         -5.4182345001       -0.6186482117        2.0189210000
 H         -5.0062325004        2.9356193695        0.7549139833
 H         -5.3232790607        4.0244674507       -0.5833189957
 H         -4.3059666309        2.5289026820       -1.9192419572
 H         -5.7606185208        1.5639649118       -1.7817226879
 O         -3.0192233007        0.7169677316       -1.4582369891
 C         -2.0715251207       -0.2637940386       -1.2197873502
 O         -1.1672748308       -0.3143659278       -2.0764183104
 O         -3.4570282801       -1.5712960315        1.8503774488
 C         -1.2055171004       -2.1399476399        0.2304601879
 C          0.0996335997       -1.4677176302        0.5758951783
 C          0.2706122599       -0.9332202314        1.8503576288
 C          1.4294559399       -0.2577852016        2.1820110592
 C          2.4397278097       -0.0936231307        1.2494699492
 C          2.2707445595       -0.6065482396       -0.0288300312
 C          1.1133854595       -1.3031370893       -0.3539624717
 H          0.9915305993       -1.6859852384       -1.3546478720
 N          3.2850188794       -0.4460655886       -0.9867457713
 S          4.0551824993        1.0371180715       -1.1205590500
 O          3.1959661894        2.1334785411       -0.7369215789
 O          4.5767439691        1.0693870028       -2.4698094401
 C          5.4193417095        0.9002878905        0.0182417096
 C          6.2327784195       -0.2126842394       -0.0690599516
 C          7.3041161297       -0.3288999802        0.8019648482
 C          7.5458032398        0.6655998189        1.7380490390
 C          6.7230442798        1.7790167688        1.8102129402
 C          5.6487210296        1.9006374696        0.9423906105
 H          4.9788798396        2.7456536996        0.9663339014
 H          6.9124222199        2.5519202882        2.5377318809
 H          8.3799308299        0.5724310283        2.4154385088
 H          7.9458702297       -1.1935322501        0.7486724272
 H          6.0123711694       -0.9618368887       -0.8108926722
 H          3.0375659392       -0.8050515278       -1.8977054716
 H          3.3408604498        0.4426992290        1.4977738195
 H          1.5495645701        0.1480586774        3.1750243596
 H         -0.5259481600       -1.0446787521        2.5728055288
 H         -1.5822997902       -2.6381295507        1.1337634075
 C         -1.0960231205       -3.1627132789       -0.8807314930
 C         -0.4088601105       -4.4671475291       -0.6116429244
 C         -1.8956071605       -4.4266009690       -0.7931404641
 H         -2.3171137506       -4.8320901481       -1.7007604544
 H         -2.5217244203       -4.5616399898        0.0764735359
 H          0.1928087694       -4.9046207884       -1.3935727849
 H         -0.0237307903       -4.6286546200        0.3836223454
 H         -0.9810963707       -2.7197201279       -1.8627819727
