  62
        -98.94446929
 C          1.8522280384        1.0632945408       -0.1658697152
 C          2.3737268691       -0.0563743765       -0.8576398350
 C          3.8359546418       -0.1903849300       -0.8348586916
 C          4.5853311909        0.7410494134       -0.2175565168
 C          6.0874094310        0.7528233997       -0.1295158609
 C          6.6507791948       -0.1018865619        1.0141772062
 C          6.5592860302       -1.6137541973        0.8030035073
 H          6.9892276424       -1.8711072927       -0.1654844486
 H          7.1799245196       -2.0821364079        1.5695136602
 C          5.1370681058       -2.1829289815        0.9044842551
 H          5.1476075788       -3.0815937691        1.5253019584
 H          4.4886174430       -1.4582984383        1.4022145483
 C          4.5098663549       -2.5666760874       -0.4359302352
 H          5.0729893671       -3.3893652760       -0.8823142348
 H          3.4909246097       -2.9167135866       -0.2504421003
 C          4.4365507175       -1.4177850064       -1.4502699161
 H          5.4279126513       -1.2016543887       -1.8479962365
 H          3.7878105368       -1.7280144517       -2.2731918188
 H          6.1352398209        0.1685584311        1.9385531729
 H          7.7038896926        0.1638879376        1.1312128981
 H          6.5129122521        0.4216441915       -1.0771332610
 H          6.3809348973        1.7910170504        0.0398842453
 O          4.0448096547        1.8230288100        0.4040546074
 C          2.6713682315        1.9970918493        0.4678839789
 O          2.3090258155        3.0054414647        1.1072685447
 H         -1.8481510873       -0.1258155429       -1.0473633642
 C         -1.4304155271       -0.5327289055       -0.1420445760
 C         -0.3235305918        0.0506069487        0.4533978616
 C          0.1844413632       -0.5194189981        1.6189522552
 C         -0.3791277294       -1.6607394639        2.1529821825
 C         -1.4744049065       -2.2508352378        1.5462104765
 C         -1.9988883810       -1.6825070371        0.3926765752
 N         -3.1047223509       -2.2617609609       -0.2448936323
 S         -4.2757578810       -1.3028365503       -0.9437101065
 O         -5.4528521556       -2.1444681958       -0.9812231504
 O         -3.8288472657       -0.7942975864       -2.2156028582
 C         -4.5290018126        0.0440186875        0.1998115979
 C         -4.8114744413       -0.2537517729        1.5186351880
 C         -5.0079630642        0.7853957868        2.4131193500
 C         -4.9238362615        2.0988307690        1.9762881043
 C         -4.6474219535        2.3812831859        0.6479764092
 C         -4.4464833848        1.3450375737       -0.2501979042
 H         -4.2241959633        1.5206732467       -1.2900200137
 H         -4.5857952782        3.4028963052        0.3078553701
 H         -5.0758552417        2.9068225036        2.6744762484
 H         -5.2254629842        0.5693180642        3.4467058127
 H         -4.8812406546       -1.2838025852        1.8277759092
 H         -3.4983690883       -3.0649518766        0.2216886383
 H         -1.9102613880       -3.1500142031        1.9542049542
 H          0.0358214001       -2.0966555540        3.0492864172
 H          1.0424667501       -0.0601110860        2.0913377437
 C          0.3505711160        1.2793709373       -0.1055539736
 H          0.1886226709        2.1113799240        0.5954600844
 C         -0.1620300852        1.6868784393       -1.4710189134
 C         -1.3516352653        2.5881328320       -1.5974116489
 C          0.0181057357        3.1066386727       -1.9144116688
 H          0.2751304029        3.2967036202       -2.9457526677
 H          0.4842816774        3.7861972951       -1.2156515369
 H         -2.0362792685        2.4187571432       -2.4152390584
 H         -1.8212434492        2.9240901075       -0.6854367101
 H         -0.0272310351        0.9105768463       -2.2161811987
 O          1.6609544625       -0.9000852872       -1.4609071071
