  62
        -98.94750858
 C         -1.7570885598       -1.3529039606       -0.1958887689
 C         -2.7969657099       -0.6762251307        0.4813242109
 C         -3.2654413204        0.5696764589       -0.1375964496
 C         -2.6894914306        0.9959356686       -1.2766492598
 C         -3.0670414911        2.2486901382       -2.0126977502
 C         -2.2043801314        3.4408716387       -1.5794038008
 C         -2.1107499113        3.6174626793       -0.0639879409
 H         -1.5425485210        2.7817928996        0.3522952394
 H         -1.5179309816        4.5167574696        0.1211548687
 C         -3.4638863213        3.7407785992        0.6504843092
 H         -4.2374059014        4.0170301886       -0.0674027308
 H         -3.3961385314        4.5489025995        1.3821327789
 C         -3.9028157008        2.4887793493        1.4126183297
 H         -3.0802326206        2.1441655698        2.0454617698
 H         -4.7304395008        2.7649563193        2.0718660797
 C         -4.3763991105        1.3106929088        0.5514943103
 H         -4.8557001502        0.5843321890        1.2147392306
 H         -5.1180231907        1.6579523083       -0.1708446498
 H         -2.6144666217        4.3465309084       -2.0314006611
 H         -1.1908342714        3.2944194188       -1.9601267809
 H         -2.9181192711        2.0748863378       -3.0800792102
 H         -4.1187887511        2.4642002680       -1.8329549702
 O         -1.6733409805        0.3350487587       -1.8832846796
 C         -1.1507891400       -0.8245604109       -1.3361310392
 O         -0.1776193100       -1.2920228109       -1.9581554591
 H         -0.2218742398       -0.6218981394        1.7932793106
 C          0.5764363204       -1.2606969693        1.4351783108
 C          0.2593028806       -2.4063448397        0.7152615713
 C          1.2975845609       -3.2156730095        0.2742079215
 C          2.6154508208       -2.8572568590        0.5048504912
 C          2.9246465405       -1.6757096587        1.1545061107
 C          1.8910404703       -0.8782110288        1.6256103705
 N          2.2026643499        0.3933690415        2.1966407500
 S          1.9600331994        1.5944336810        1.0276445895
 O          2.2973199691        2.8458875914        1.6737826290
 O          0.6276319894        1.5292960104        0.4671045897
 C          3.1864800794        1.1719493009       -0.1843744704
 C          4.4802047693        1.6131156614        0.0167377492
 C          5.4609546894        1.2465298713       -0.8900292607
 C          5.1322904695        0.4436965308       -1.9725675803
 C          3.8292044896        0.0082251603       -2.1574520900
 C          2.8408284796        0.3719291204       -1.2553200801
 H          1.8196016997        0.0403582100       -1.3721250799
 H          3.5682982997       -0.6189799701       -2.9947876398
 H          5.8956468795        0.1545617507       -2.6776442603
 H          6.4753022793        1.5834501617       -0.7494207209
 H          4.6828763692        2.2360364118        0.8724203090
 H          1.6174182899        0.6147648317        2.9924219099
 H          3.9454110404       -1.3600452183        1.2954977605
 H          3.4110562009       -3.4912488889        0.1455780514
 H          1.0745881611       -4.1169467698       -0.2729814981
 C         -1.1959203193       -2.6364862902        0.3960393015
 H         -1.7459654592       -2.7942414600        1.3354666516
 C         -1.4429103690       -3.8111770007       -0.5251115180
 C         -1.5296451086       -5.1996411905        0.0329972226
 C         -2.7646965688       -4.5141975011       -0.4668373676
 H         -3.2083348388       -4.8541600216       -1.3904525374
 H         -3.4838336289       -4.1581071510        0.2564075624
 H         -1.4128350084       -5.3173207600        1.0996199726
 H         -1.1277565084       -6.0153559306       -0.5484542271
 H         -0.9910434092       -3.6758993709       -1.5012168881
 O         -3.3114102797       -1.0976793904        1.5550636011
