  62
        -98.93613404
 C          1.2398611410        1.8015465390        0.3864803798
 C          1.3466163110        0.5501424191        1.0463154298
 C          2.2716301106       -0.4352561312        0.4762596096
 C          2.9323803502       -0.1214300613       -0.6521374707
 C          3.9512726598       -0.9858216616       -1.3390652210
 C          5.2877708901       -0.9480550018       -0.5708379315
 C          5.6946350901       -2.2840353919        0.0510858084
 H          6.0657561296       -2.9432930920       -0.7364011817
 H          6.5226776603       -2.0881217320        0.7355528481
 C          4.5895714502       -3.0295158916        0.8047580589
 H          3.9370194898       -3.5364165415        0.0921644691
 H          5.0764787402       -3.8103878417        1.3927706987
 C          3.7242591007       -2.1744126614        1.7391282091
 H          4.2621978810       -1.2776266415        2.0469509189
 H          3.5261550409       -2.7541612213        2.6428224892
 C          2.3555829406       -1.7724688311        1.1591515496
 H          2.0020020802       -2.5480753411        0.4725017498
 H          1.6347997709       -1.7108010509        1.9802111199
 H          6.0840910299       -0.6268452820       -1.2439610018
 H          5.2107187405       -0.1887788117        0.2101530685
 H          3.5737252696       -2.0037765015       -1.4108656808
 H          4.0788501795       -0.5936368317       -2.3485239811
 O          2.7990857102        1.0783221586       -1.2675423307
 C          1.9323029406        2.0613848788       -0.7952013305
 O          1.9109938305        3.0788122188       -1.5118479905
 H         -0.7333096497        1.3830650693       -1.1420796895
 C         -1.4719828093        1.4791236495       -0.3595999492
 C         -1.1615176888        2.1600816395        0.8083318507
 C         -2.1306476684        2.2558917898        1.8001245710
 C         -3.3781067886        1.6835282400        1.6241365915
 C         -3.6687253091        0.9707194000        0.4744012316
 C         -2.7012082795        0.8584683798       -0.5163106087
 N         -2.9146646601        0.0845011197       -1.6784417786
 S         -1.9553223304       -1.2889596005       -1.7985823689
 O         -0.5639170304       -0.9207152607       -1.8304155894
 O         -2.4605647710       -2.0007815404       -2.9530756786
 C         -2.3389813501       -2.2054855103       -0.3165747387
 C         -1.7021083996       -1.8806636003        0.8641822311
 C         -2.0750724493       -2.5396479502        2.0257323413
 C         -3.0720817395       -3.5018479000        1.9890396517
 C         -3.7015327600       -3.8170980600        0.7938811319
 C         -3.3371621903       -3.1600363601       -0.3698791382
 H         -3.7956433907       -3.3734886401       -1.3220922681
 H         -4.4755186901       -4.5671147198        0.7665160422
 H         -3.3587782192       -4.0081570799        2.8971759118
 H         -1.5803832289       -2.2847572603        2.9493279911
 H         -0.9288419794       -1.1285865505        0.8712790408
 H         -3.8813053702       -0.1800269601       -1.8162876382
 H         -4.6291845193        0.4942567202        0.3477625520
 H         -4.1228028783        1.7696812702        2.4002684118
 H         -1.8937315080        2.7639126998        2.7231949909
 C          0.2153601014        2.7536303093        0.9856977701
 H          0.4184355818        2.7741341893        2.0699044100
 C          0.2989540015        4.1837835592        0.4807605500
 C         -0.5898154788        4.7091442993       -0.6022491297
 C         -0.7755167582        5.1780383895        0.8081106303
 H         -0.4791618779        6.1851672694        1.0586657002
 H         -1.6471493481        4.8263235397        1.3379793807
 H         -0.1530104889        5.3772454792       -1.3282457599
 H         -1.3257678391        4.0387730995       -1.0202485194
 H          1.3181810316        4.5530420190        0.4814679296
 O          0.6752685613        0.2735344493        2.0786288301
