  62
        -98.94523339
 C          2.4555993411       -1.1978125336        0.0656489677
 C          3.5461156223       -0.8354841128       -0.7650200510
 C          4.4489581458        0.1891735000       -0.2314419892
 C          4.2107751703        0.7212494655        0.9811310596
 C          5.0481595441        1.7642851267        1.6701722090
 C          4.7247364070        3.2033428990        1.2453651607
 C          5.1975621716        3.5893593265       -0.1567984802
 H          5.1048696518        4.6741784946       -0.2381010455
 H          6.2547567562        3.3439855751       -0.2623943362
 C          4.3992973624        2.9393793060       -1.2956767597
 H          3.4526050501        2.5572512107       -0.9057116202
 H          4.1528038161        3.6952316863       -2.0447545082
 C          5.1314845313        1.8079026901       -2.0172916599
 H          6.0118962068        2.2070495537       -2.5255957342
 H          4.4614630275        1.3962206920       -2.7761588125
 C          5.5748059446        0.6585233772       -1.1027938618
 H          5.8808670703       -0.1811762126       -1.7313649681
 H          6.4236408878        0.9680000363       -0.4936743884
 H          3.6452706853        3.3554202679        1.3212991509
 H          5.2051293961        3.8708684746        1.9645278829
 H          4.8468000780        1.6676037962        2.7392596655
 H          6.1049231303        1.5605295863        1.4953020411
 O          3.1566111555        0.3429565543        1.7512807935
 C          2.2436738168       -0.6051880110        1.3103986704
 O          1.3206864089       -0.8296402800        2.1181582532
 H         -0.7854906090       -2.0693306376        1.0989751487
 C         -0.8787483870       -1.5275334713        0.1712004479
 C          0.1668917875       -1.5309850498       -0.7379685693
 C          0.0318032962       -0.7944731229       -1.9121566547
 C         -1.1224985511       -0.0792925211       -2.1675923865
 C         -2.1631197223       -0.0742194757       -1.2542628097
 C         -2.0304906216       -0.7902961958       -0.0730204498
 N         -3.0753622380       -0.7831368675        0.8668599568
 S         -3.7829164692        0.6870867239        1.2604208832
 O         -2.8638460220        1.7903463151        1.1000267420
 O         -4.3389838027        0.4973201110        2.5827062580
 C         -5.1215591172        0.8310837194        0.0927910350
 C         -6.0055537369       -0.2243471840       -0.0193420325
 C         -7.0585608503       -0.1232116782       -0.9142812536
 C         -7.2121656816        1.0263934887       -1.6748919341
 C         -6.3188906933        2.0789256992       -1.5478720404
 C         -5.2623852593        1.9834170935       -0.6552994417
 H         -4.5397836173        2.7738035709       -0.5271082355
 H         -6.4396513823        2.9723049057       -2.1392889931
 H         -8.0324415165        1.1025537415       -2.3710129917
 H         -7.7549727293       -0.9398455456       -1.0159574124
 H         -5.8525478400       -1.0983943754        0.5911725341
 H         -2.8627559035       -1.3084235665        1.7031534493
 H         -3.0610024949        0.4920712772       -1.4402536669
 H         -1.2142455550        0.4839796423       -3.0838598387
 H          0.8531735125       -0.7801601705       -2.6151163804
 C          1.4725314176       -2.2324255301       -0.4581397104
 H          1.8916693769       -2.5705853379       -1.4154103435
 C          1.3496722842       -3.4236596739        0.4677581134
 C          0.7094672200       -4.6816611396       -0.0359701341
 C          2.1867712619       -4.6392497230        0.2106787628
 H          2.5853964311       -5.1770548021        1.0578605423
 H          2.8482052874       -4.6185854034       -0.6428890654
 H          0.0914742415       -5.2526473571        0.6399719164
 H          0.3663498041       -4.6884378531       -1.0593029920
 H          1.1863679861       -3.1488854762        1.5028850614
 O          3.7561166394       -1.3487691685       -1.8956074858
