  62
        -98.93582611
 C         -2.3546124080       -1.1054446073        0.1311522818
 C         -3.6055383079       -1.0104344360        0.7929919899
 C         -4.6024344335       -0.0947785888        0.2122279167
 C         -4.2726875694        0.6153931429       -0.8799041586
 C         -5.1091963954        1.6384120758       -1.5975911202
 C         -4.8099536937        3.0527114810       -1.0721603068
 C         -5.6356543161        3.4773373057        0.1417083593
 H         -5.2374062653        4.4346248117        0.4857685752
 H         -6.6691218608        3.6449471442       -0.1687572032
 C         -5.6302528809        2.4925086833        1.3137336960
 H         -4.6175760184        2.1173882028        1.4733302165
 H         -5.9166764489        3.0411690430        2.2130511556
 C         -6.5993194184        1.3169203172        1.1188250917
 H         -7.2602017934        1.5348881522        0.2801533395
 H         -7.2376375130        1.2247279070        1.9999788242
 C         -5.9341704425       -0.0511588797        0.9109760555
 H         -6.6291801745       -0.7081451484        0.3771406174
 H         -5.7503867222       -0.5173689080        1.8840930584
 H         -4.9943571905        3.7703307686       -1.8743261376
 H         -3.7448518973        3.1016714861       -0.8300803860
 H         -4.8215989918        1.5912111875       -2.6500954938
 H         -6.1656607262        1.4018573687       -1.5121649260
 O         -3.0497342570        0.5209632710       -1.4680046403
 C         -2.0612701420       -0.3281525060       -0.9907241345
 O         -1.0087726459       -0.2869055851       -1.6554399270
 O         -3.8786874223       -1.6640705104        1.8351344004
 C         -1.3229036309       -2.0428107543        0.7361750211
 C         -0.0185270833       -1.3141112470        0.9289078130
 C          0.1348991591       -0.4628487374        2.0191279311
 C          1.3028995908        0.2550181303        2.1941075926
 C          2.3368449025        0.1481775207        1.2801317910
 C          2.1839053573       -0.6811839789        0.1777126530
 C          1.0203746052       -1.4228405470        0.0190890831
 H          0.9066597530       -2.0560260805       -0.8469723599
 N          3.2200766918       -0.7902373652       -0.7635338259
 S          4.0361737571        0.5924789835       -1.2482645341
 O          3.2142999718        1.7769579878       -1.1620283312
 O          4.5713105266        0.2725374423       -2.5541817873
 C          5.3863982603        0.7012114181       -0.0893474886
 C          5.6240402027        1.8835442705        0.5836171944
 C          6.6876082255        1.9491141353        1.4705274104
 C          7.4916006149        0.8370336628        1.6670658852
 C          7.2417103965       -0.3424471184        0.9814436210
 C          6.1810795714       -0.4138037566        0.0927122225
 H          5.9555020430       -1.3094580981       -0.4613696609
 H          7.8691028072       -1.2053117088        1.1368313312
 H          8.3176802059        0.8900445122        2.3584991568
 H          6.8832332025        2.8657138827        2.0035817037
 H          4.9692316460        2.7214324094        0.4029140814
 H          2.9772865560       -1.3586415789       -1.5622436939
 H          3.2439082844        0.7173890668        1.4011928637
 H          1.4101155339        0.9080969831        3.0469264395
 H         -0.6793882131       -0.3636097789        2.7237535152
 H         -1.7292772413       -2.2836235021        1.7316487857
 C         -1.1598762218       -3.3680260277        0.0065386542
 C         -2.3556268191       -4.0793076286       -0.5507639134
 C         -1.3178449173       -3.5207165491       -1.4753759800
 H         -0.6643503935       -4.2125015727       -1.9874168172
 H         -1.5592576564       -2.6434253841       -2.0547880491
 H         -2.4216507430       -5.1504479864       -0.4345409314
 H         -3.3072977383       -3.5718386669       -0.4880170393
 H         -0.4042027600       -3.9902263361        0.4768799269
