  62
        -98.93692683
 C         -2.4215562406       -1.2440391374        0.1432645873
 C         -2.3111438117        0.0233588482       -0.4803415947
 C         -3.5808982774        0.6481316533       -0.8807476587
 C         -4.7458855629        0.0164757638       -0.6533333471
 C         -6.1150380550        0.5149658351       -1.0287671984
 C         -6.7275146182        1.4841923824       -0.0082893503
 C         -6.1003750899        2.8785533679        0.0229373261
 H         -6.0788894630        3.2889403594       -0.9870455113
 H         -6.7597238667        3.5128627786        0.6186556645
 C         -4.6908076286        2.9256625645        0.6293720443
 H         -4.6235961985        3.7592941235        1.3319259329
 H         -4.5080359754        2.0118917541        1.1995231696
 C         -3.5664997933        3.1030698907       -0.3913223365
 H         -2.6115993704        3.0804316668        0.1405884670
 H         -3.6600878388        4.0780911049       -0.8748633860
 C         -3.5246187457        2.0214653706       -1.4786622209
 H         -4.3422711369        2.1644214880       -2.1850213304
 H         -2.5767332588        2.1119743515       -2.0155130120
 H         -7.7861237751        1.5908042746       -0.2557825814
 H         -6.6618435665        1.0328153174        0.9843062212
 H         -6.0748505437        0.9923852556       -2.0081833566
 H         -6.7580194049       -0.3652385112       -1.0962997554
 O         -4.8097755239       -1.1982780821       -0.0455826701
 C         -3.6615169446       -1.8394521301        0.3904813288
 O         -3.8730422449       -2.9178821193        0.9798939420
 H          1.4299121701       -1.3878780540        0.0007755196
 C          1.0642477721       -0.8728697895        0.8721691792
 C         -0.2369491781       -1.0619572633        1.3097449190
 C         -0.6753974771       -0.3574319811        2.4282389548
 C          0.1608892156        0.5307299205        3.0750092553
 C          1.4538595164        0.7297917045        2.6246968233
 C          1.9072331535        0.0202167538        1.5187346844
 N          3.2370128247        0.1724694992        1.0867518024
 S          3.6674639696        0.0075525567       -0.5346940965
 O          2.9641007239        0.9643688290       -1.3588528395
 O          3.5558851763       -1.3781330094       -0.9144509798
 C          5.3910486130        0.4555325728       -0.4203656259
 C          5.7839915898        1.7405293022       -0.7430709187
 C          7.1221736407        2.0826782021       -0.6264068612
 C          8.0397770454        1.1398381158       -0.1883406270
 C          7.6309519695       -0.1465953357        0.1308552546
 C          6.2948207310       -0.4951074557        0.0147944363
 H          5.9324741568       -1.4840046353        0.2419860989
 H          8.3477251266       -0.8778600474        0.4681087519
 H          9.0804686597        1.4084343669       -0.0982765152
 H          7.4431613310        3.0807587178       -0.8777828216
 H          5.0369150260        2.4372320143       -1.0885043258
 H          3.6757454139        0.9946676736        1.4792963735
 H          2.1059624941        1.4301186624        3.1245304293
 H         -0.1973572959        1.0792304727        3.9334963453
 H         -1.6906944231       -0.5054767477        2.7724802926
 C         -1.1999862490       -2.0046047104        0.6297173999
 H         -1.5831740198       -2.7020591244        1.3938930735
 C         -0.5386086059       -2.8575171142       -0.4426897924
 C         -1.3206598163       -3.4136177064       -1.5937976322
 C         -0.2959771056       -2.3468587746       -1.8299017471
 H          0.6312886030       -2.6128792824       -2.3174798964
 H         -0.6303504802       -1.3469782368       -2.0590026325
 H         -2.3646873362       -3.1454524813       -1.6677528648
 H         -1.1034404887       -4.4191777147       -1.9211512493
 H          0.2269492694       -3.5068872298       -0.0278294713
 O         -1.2224763935        0.6157478365       -0.6982999910
