  62
        -98.94572533
 C          2.4832125942        1.1377600773       -0.0393003997
 C          3.0983920027        0.2557290094        0.8806373917
 C          3.6083224956       -1.0007942482        0.3229465497
 C          3.4735455546       -1.2495494628       -0.9926352734
 C          3.9477818092       -2.4829485274       -1.7120098180
 C          2.9585070153       -3.6548718485       -1.6467338376
 C          2.8608393535       -4.3473436579       -0.2867526725
 H          2.3029112182       -5.2734482823       -0.4381205601
 H          3.8601344939       -4.6192802050        0.0549114170
 C          2.1528402315       -3.5193952459        0.7951853650
 H          1.5794005809       -2.7169396609        0.3223392837
 H          1.4315814191       -4.1485845859        1.3228159378
 C          3.0883982738       -2.9185064987        1.8452458292
 H          3.5635485958       -3.7219527004        2.4122530773
 H          2.4870629375       -2.3268743062        2.5408093577
 C          4.1834912923       -2.0089669799        1.2716540789
 H          4.6438895131       -1.4638842181        2.0992607931
 H          4.9476566517       -2.6069753166        0.7764784989
 H          1.9693897334       -3.2953395564       -1.9425310706
 H          3.2781563099       -4.3941816077       -2.3847281084
 H          4.0786062767       -2.2015155410       -2.7589648647
 H          4.9122747546       -2.7955009568       -1.3112050047
 O          2.8822171992       -0.3733346436       -1.8463292134
 C          2.3360774282        0.8184647062       -1.3896786199
 O          1.7727927467        1.4926687781       -2.2717139609
 O          3.2069260666        0.5029183080        2.1129840870
 C          1.8661898613        2.4239476199        0.4847583256
 C          0.3665025850        2.3124417855        0.3570412526
 C         -0.4266934811        3.2146160740       -0.3375316959
 C         -1.7901854886        3.0011568923       -0.4548422450
 C         -2.3893519197        1.8929777463        0.1152211122
 C         -1.6050469177        0.9888521517        0.8202257121
 C         -0.2442368251        1.2085868079        0.9419204448
 H          0.3660670149        0.4975584443        1.4865377640
 N         -2.2075940857       -0.1552600533        1.3932855724
 S         -2.7663880551       -1.2838907139        0.2719214336
 O         -2.8047809417       -2.5438210266        0.9827887471
 O         -1.9803805006       -1.2551040174       -0.9415791526
 C         -4.4300153646       -0.7443514740       -0.0549962772
 C         -5.3364675471       -0.7697262889        0.9871214737
 C         -6.6330188571       -0.3391731600        0.7558849861
 C         -6.9987052927        0.1051982270       -0.5062832166
 C         -6.0774196217        0.1210089859       -1.5424889733
 C         -4.7780610535       -0.3073277729       -1.3177342220
 H         -4.0247486259       -0.3065672054       -2.0895264593
 H         -6.3633077076        0.4669285561       -2.5228266435
 H         -8.0079044158        0.4416578067       -0.6839124152
 H         -7.3524487192       -0.3502869887        1.5586457662
 H         -5.0097262406       -1.1276883060        1.9490654298
 H         -1.5976057462       -0.6258513201        2.0484216284
 H         -3.4493235014        1.7220270969        0.0205585312
 H         -2.3939386216        3.7072401183       -1.0040896443
 H          0.0241654183        4.0768236429       -0.8002851714
 H          2.1162562943        2.4503501872        1.5557522533
 C          2.4578162524        3.6431848751       -0.1859864630
 C          2.4166408609        4.9702541534        0.5093665252
 C          3.7159579278        4.2373492813        0.3700565809
 H          4.4539661214        4.6177179194       -0.3199691560
 H          4.1395665191        3.7723823026        1.2483718172
 H          2.2643962463        5.8587830868       -0.0841146337
 H          1.9584013186        5.0074326339        1.4859906111
 H          2.3490506717        3.6231778699       -1.2639513183
