  62
        -98.93450019
 C         -1.8461822483       -0.0962571856        0.7371553483
 C         -2.7701010143       -0.9010063138        0.0311027095
 C         -4.1269096263       -0.3447761869       -0.1546410914
 C         -4.4205641691        0.8637879164        0.3550441081
 C         -5.7158627177        1.6331360250        0.2889532468
 C         -7.0061614497        0.8380585837        0.5418396667
 C         -7.8593128805        0.6473041122       -0.7134851421
 H         -8.8952569608        0.4809789218       -0.4096613496
 H         -7.8349635215        1.5723495149       -1.2933801035
 C         -7.4469571330       -0.5204491303       -1.6079906479
 H         -7.7100536271       -1.4606876495       -1.1185898613
 H         -8.0353392037       -0.4567443084       -2.5264021113
 C         -5.9631687342       -0.5679821199       -1.9778572303
 H         -5.5922979769        0.4322290099       -2.1989608103
 H         -5.8667618491       -1.1528251115       -2.8950606099
 C         -5.0837429862       -1.2299425456       -0.9065327780
 H         -5.7106816597       -1.7629292844       -0.1861186234
 H         -4.4488227931       -1.9900266927       -1.3717989966
 H         -6.7664631854       -0.1257065897        0.9881952219
 H         -7.6000382729        1.3921576504        1.2706561942
 H         -5.6133509058        2.4217668310        1.0380447798
 H         -5.7724297172        2.1330974279       -0.6813153470
 O         -3.4962212188        1.6083354559        1.0281247932
 C         -2.2070383437        1.1596949913        1.2320758911
 O         -1.4852444302        1.9540374800        1.8694394658
 H          1.6140352807        1.2503596180        0.7580476335
 C          1.4690754173        0.6656730270       -0.1383349260
 C          0.4655700432       -0.2913270909       -0.1910550261
 C          0.2908518713       -1.0138771060       -1.3675964173
 C          1.1017330301       -0.7764226379       -2.4616339481
 C          2.1124620489        0.1673102357       -2.3999344027
 C          2.2956433219        0.8943982098       -1.2306110237
 N          3.3148384856        1.8621596375       -1.1357875575
 S          4.4318722498        1.7247782004        0.1035211753
 O          3.7901523062        1.9334530996        1.3754355606
 O          5.4890104514        2.6472151239       -0.2452466224
 C          5.0212233105        0.0462277958       -0.0275656406
 C          6.1341201461       -0.2106725787       -0.8044969444
 C          6.5476605508       -1.5225201075       -0.9705226141
 C          5.8369136434       -2.5510436567       -0.3704126632
 C          4.7200718494       -2.2769461460        0.4039499490
 C          4.3058578981       -0.9662731529        0.5800388851
 H          3.4440393006       -0.7160621397        1.1765343724
 H          4.1653270832       -3.0751637505        0.8702301640
 H          6.1551454643       -3.5727395642       -0.5049419640
 H          7.4181237087       -1.7388403056       -1.5686634280
 H          6.6580628723        0.6200874085       -1.2489888695
 H          3.7968610244        2.0296899316       -2.0080625002
 H          2.7489312897        0.3481435789       -3.2530830917
 H          0.9507868599       -1.3380801408       -3.3708984591
 H         -0.5003322161       -1.7452416603       -1.4207554621
 C         -0.4115455248       -0.5189489034        1.0172008891
 H         -0.0603106120        0.1543060082        1.8114996816
 C         -0.2976960418       -1.9457043064        1.5180773528
 C          0.8710195039       -2.3237592105        2.3750686585
 C         -0.4987566065       -2.2246201288        2.9756572008
 H         -1.0078139750       -3.1328879720        3.2608871550
 H         -0.7132042781       -1.3839478592        3.6202851857
 H          1.5831665519       -1.5503520231        2.6235149666
 H          1.3062588030       -3.3031978744        2.2508207653
 H         -0.6713305784       -2.6809957806        0.8186088510
 O         -2.5024312709       -2.0385981848       -0.4377990809
