  62
        -98.93569394
 C          2.2866354015        0.8198811829        0.8566597219
 C          3.4680910496        0.9373527094        0.0827449386
 C          4.4469753634       -0.1514099299        0.2388518295
 C          4.1907968194       -1.1607189234        1.0890376948
 C          5.0700946370       -2.3600708427        1.2910477559
 C          4.6742633139       -3.5032047203        0.3458843518
 C          4.5191050168       -3.0730901952       -1.1129759955
 H          4.2697992867       -3.9664649658       -1.6897340297
 H          3.6684385225       -2.3919964327       -1.1942460932
 C          5.7640763090       -2.4062974398       -1.7148079607
 H          5.9386269178       -2.8246713125       -2.7082427143
 H          6.6388358255       -2.6391914706       -1.1067007405
 C          5.6530561608       -0.8899042101       -1.8830404113
 H          4.7264369529       -0.6469993901       -2.4090384157
 H          6.4835412272       -0.5559581795       -2.5105370866
 C          5.7001112247       -0.0702624441       -0.5873428882
 H          6.5705937002       -0.3630384438        0.0027040091
 H          5.8083935388        0.9824554880       -0.8637899222
 H          5.4295005175       -4.2879909948        0.4180318808
 H          3.7206940951       -3.9162469799        0.6836015592
 H          6.1069904448       -2.0765618411        1.1216516144
 H          4.9581907283       -2.6980262355        2.3226384975
 O          3.0593816200       -1.2248603759        1.8385223266
 C          2.0831381290       -0.2495716449        1.7333241367
 O          1.0969923266       -0.4347012363        2.4766796695
 H         -1.4745122972        1.1953190989        0.9024243534
 C         -1.0960487358        1.1947935899       -0.1091237729
 C          0.2351568366        1.4991130789       -0.3526313887
 C          0.7036003742        1.4641617652       -1.6637600306
 C         -0.1474063344        1.1333483646       -2.7013215186
 C         -1.4730293968        0.8215568010       -2.4537483550
 C         -1.9502647291        0.8520903053       -1.1490085669
 N         -3.3011926589        0.5702603346       -0.8751726140
 S         -3.6571185021       -0.3489760783        0.4991780946
 O         -3.6383683997        0.5159413217        1.6515024006
 O         -2.8063594375       -1.5170492309        0.5447157843
 C         -5.3375983823       -0.8220954083        0.1336259860
 C         -5.5889257233       -2.0700589200       -0.4043623548
 C         -6.8951462244       -2.4170129443       -0.7122578474
 C         -7.9216954569       -1.5136845707       -0.4814821816
 C         -7.6540031142       -0.2649303409        0.0597842924
 C         -6.3505421781        0.0877494305        0.3712769048
 H         -6.0953073467        1.0417734071        0.8019981244
 H         -8.4550450564        0.4334370956        0.2406358051
 H         -8.9371507220       -1.7860672499       -0.7220762121
 H         -7.1062487225       -3.3885146190       -1.1292709245
 H         -4.7595022544       -2.7418807117       -0.5576850866
 H         -3.7856883739        0.2012336902       -1.6832413764
 H         -2.1341545535        0.5565234957       -3.2649947916
 H          0.2269962889        1.1096491754       -3.7137522098
 H          1.7403353214        1.6968704761       -1.8533602525
 C          1.1544064757        1.8336601235        0.7944943259
 H          0.5851938710        1.6819006393        1.7255572035
 C          1.6458508815        3.2765065020        0.7877993727
 C          1.3334938048        4.2571210218       -0.2995595861
 C          0.6683761470        4.3879416894        1.0348915231
 H          0.9571636738        5.1980955310        1.6872764647
 H         -0.3752545809        4.1168067437        1.1029630994
 H          0.7352944214        3.9263750329       -1.1335624612
 H          2.1038302248        4.9640575498       -0.5673938300
 H          2.6191092798        3.3774005195        1.2558920477
 O          3.7128328641        1.8893369136       -0.7011396638
