  62
        -98.93943045
 C         -2.2489469463       -0.8317455307       -0.0417462585
 C         -3.2657967589       -0.6903064166        0.9334430228
 C         -4.1650510658        0.4676192417        0.7950143817
 C         -3.9720456744        1.3338407494       -0.2171216697
 C         -4.6897737006        2.6168184840       -0.5815116023
 C         -6.0398018779        2.9614229102        0.0422933605
 C         -7.1896295201        2.0447250954       -0.3740637254
 H         -8.0738461781        2.3228082865        0.2035269849
 H         -7.4115836884        2.2237563559       -1.4291566108
 C         -6.9351431584        0.5490599223       -0.2043579894
 H         -7.8297382812        0.0178817798       -0.5405100145
 H         -6.1147933740        0.2404053634       -0.8555857741
 C         -6.6340570834        0.0948515096        1.2224836633
 H         -6.6347298821       -0.9983702017        1.2262387756
 H         -7.4285229648        0.4319195622        1.8909557522
 C         -5.2826751404        0.5579896826        1.7940454116
 H         -5.0145995726       -0.1144811868        2.6140023846
 H         -5.3494464370        1.5624284561        2.2051154782
 H         -6.2867575285        3.9727091195       -0.2922407792
 H         -5.9555640896        3.0005085325        1.1242636918
 H         -3.9854277147        3.4245265636       -0.3526510897
 H         -4.7928402570        2.6002327453       -1.6712713486
 O         -2.9598200363        1.1706627582       -1.1187070570
 C         -2.0832713845        0.0989941444       -1.0652263310
 O         -1.2328207098        0.0976022581       -1.9768289661
 O         -3.4160932844       -1.4988198283        1.8876866100
 C         -1.3011193206       -2.0140519103        0.0778474872
 C          0.0590112405       -1.4876116866        0.4624040585
 C          0.3210191850       -1.1936575234        1.7979824195
 C          1.5326815504       -0.6468205443        2.1752526354
 C          2.5055053835       -0.3722539567        1.2291776594
 C          2.2460439881       -0.6434394975       -0.1068661708
 C          1.0365032749       -1.2147507975       -0.4812088857
 H          0.8442697576       -1.4080765920       -1.5245902715
 N          3.2206591653       -0.3587721969       -1.0781907898
 S          4.0113196222        1.1197489770       -1.0104074044
 O          3.1929920381        2.1455288876       -0.4056331688
 O          4.4630284986        1.3694073792       -2.3621824083
 C          5.4298650229        0.7837238598        0.0148762472
 C          6.2220488751       -0.3017135318       -0.3049269460
 C          7.3342767761       -0.5718760077        0.4760180197
 C          7.6366721211        0.2449737223        1.5554134589
 C          6.8342467947        1.3333859531        1.8609384189
 C          5.7191707178        1.6083482123        1.0842842779
 H          5.0626131615        2.4393453995        1.2883898942
 H          7.0706260271        1.9678832719        2.7000104604
 H          8.5026184400        0.0320809531        2.1621216365
 H          7.9603361278       -1.4176493159        0.2415370030
 H          5.9537442544       -0.9100061517       -1.1523314779
 H          2.9141656245       -0.5544482663       -2.0206036902
 H          3.4477657030        0.0662890870        1.5141930131
 H          1.7231012915       -0.4282052996        3.2150210720
 H         -0.4467020397       -1.3870756245        2.5341342357
 H         -1.6860676196       -2.6092169568        0.9166647155
 C         -1.2984001526       -2.8738197751       -1.1684147866
 C         -0.7020508909       -4.2474228749       -1.1078146858
 C         -2.1861336090       -4.0792311103       -1.2274042222
 H         -2.6601554732       -4.3229287038       -2.1664817729
 H         -2.7971118283       -4.2923570885       -0.3626298273
 H         -0.1549889773       -4.6111412345       -1.9640753658
 H         -0.3036204032       -4.5733658841       -0.1590816277
 H         -1.1775758449       -2.3064637663       -2.0833057103
