  62
        -98.94147475
 C         -1.5347731101       -0.7006223816        0.9357517495
 C         -2.7774961300       -1.1222367714        0.4038340392
 C         -3.8256045202       -0.0913495414        0.3314768999
 C         -3.5557123503        1.1626810283        0.7350425609
 C         -4.5112583405        2.3170092382        0.6523266617
 C         -4.3646175206        3.0672824992       -0.6789921977
 C         -4.3727005204        2.1565603202       -1.9068009284
 H         -4.2941150405        2.7975821908       -2.7875906579
 H         -3.4813534604        1.5249859303       -1.8888789189
 C         -5.6188779403        1.2689313601       -2.0310511890
 H         -5.9705814703        1.3012524308       -3.0644578090
 H         -6.4196090904        1.6637290195       -1.4045127987
 C         -5.3852186502       -0.2029701901       -1.6861188801
 H         -6.2600247201       -0.7717195900       -2.0126884205
 H         -4.5238522901       -0.5784080496       -2.2443961404
 C         -5.1672047301       -0.5122826312       -0.1997766004
 H         -5.9715079602       -0.0685604418        0.3904893900
 H         -5.2104979600       -1.5985242613       -0.0780640612
 H         -5.1764850906        3.7927366092       -0.7570135672
 H         -3.4192503006        3.6143591794       -0.6657524773
 H         -4.2928864905        3.0036710677        1.4718627922
 H         -5.5290367504        1.9478083480        0.7627466915
 O         -2.3459587104        1.5351150781        1.2251055711
 C         -1.3110973402        0.6223564481        1.3312861905
 O         -0.2555059403        1.0990107879        1.7925905108
 O         -3.0257416099       -2.2915201911        0.0082834083
 C         -0.3395428100       -1.6309289516        1.0775577188
 C          0.3550960301       -1.7592478505       -0.2568650013
 C         -0.1344214399       -2.5738171298       -1.2721649219
 C          0.5262921402       -2.6455339888       -2.4850161520
 C          1.6865508501       -1.9236399585       -2.7037489314
 C          2.1767218100       -1.0967668392       -1.6992357308
 C          1.5031257000       -1.0147850402       -0.4893534508
 H          1.8746883799       -0.3610729707        0.2847739997
 N          3.3308967699       -0.3292654689       -1.9007501303
 S          4.3820703698       -0.0055403697       -0.6419824100
 O          5.6208881398        0.3534796810       -1.2996151598
 O          4.4572231200       -1.1094630504        0.2866644791
 C          3.7074123197        1.4380136496        0.1486895510
 C          3.5075971397        1.4435682386        1.5141319410
 C          2.9943561895        2.5825797481        2.1125327419
 C          2.6939916794        3.6913421386        1.3379532427
 C          2.9050625994        3.6720238197       -0.0323580173
 C          3.4176631395        2.5359024502       -0.6363652381
 H          3.5959429095        2.4831798310       -1.6976587782
 H          2.6673376693        4.5372803801       -0.6304116867
 H          2.2884387593        4.5742047882        1.8064897234
 H          2.8214877895        2.5964371173        3.1764739119
 H          3.7456123798        0.5560985982        2.0798213304
 H          3.8127115699       -0.4926712682       -2.7723101404
 H          2.2069518901       -1.9924874177       -3.6470344115
 H          0.1384240002       -3.2792054583       -3.2684671324
 H         -1.0458393798       -3.1275912900       -1.1116267023
 H          0.3541279200       -1.1192153820        1.7586734092
 C         -0.6847269898       -2.9785015520        1.6775363278
 C          0.4275581903       -3.8312524623        2.2069857572
 C         -0.5349487698       -3.1806859331        3.1538439176
 H         -1.2559148197       -3.8016405036        3.6641516072
 H         -0.1851467199       -2.3446467335        3.7422300383
 H          0.3695642605       -4.8999191022        2.0678828564
 H          1.4311574703       -3.4354352721        2.1480664774
 H         -1.5145068497       -3.4741521018        1.1924935974
