  62
        -98.94532545
 C          1.5679638699        0.9875098251        0.3093267714
 C          2.8867747955        1.1501253790        0.8013240232
 C          3.9674028506        0.7962338907       -0.1246968758
 C          3.6685471243        0.3485409661       -1.3577295438
 C          4.6589935022       -0.0417616537       -2.4212004848
 C          5.1806525977       -1.4793200229       -2.2900800748
 C          6.1580018249       -1.7148803006       -1.1376685580
 H          6.6082782856       -2.6968949676       -1.2957938917
 H          6.9598375183       -0.9774902247       -1.1866191228
 C          5.5137800993       -1.6866063314        0.2554620424
 H          4.4315657482       -1.8032390564        0.1587692595
 H          5.8746072731       -2.5355634649        0.8406257654
 C          5.8064650432       -0.4221997313        1.0633443889
 H          6.8753651138       -0.3657935147        1.2806826935
 H          5.2727705124       -0.4923934458        2.0145369573
 C          5.3782799348        0.8802421946        0.3747294357
 H          5.4230108475        1.6871610023        1.1101671919
 H          6.0584013623        1.1141623631       -0.4438530965
 H          5.6883168636       -1.7281060094       -3.2249593092
 H          4.3261574878       -2.1526724466       -2.1874526439
 H          5.4989010303        0.6535133929       -2.4134373887
 H          4.1399031708        0.0494933300       -3.3777385251
 O          2.3894025380        0.2156298371       -1.7974890482
 C          1.3086070786        0.5097085831       -0.9757165836
 O          0.2004116579        0.3221325610       -1.5117901739
 O          3.1475985927        1.5733665942        1.9591574187
 C          0.4095974988        1.2973645311        1.2434779926
 C         -0.2483736182       -0.0050828709        1.6289421583
 C          0.4632134138       -0.9107901356        2.4131724427
 C         -0.0919284663       -2.1245748830        2.7674100914
 C         -1.3613541703       -2.4687186605        2.3329828244
 C         -2.0765132026       -1.5767960396        1.5454633965
 C         -1.5241223907       -0.3469250124        1.2125158095
 H         -2.0959515155        0.3381715069        0.6132584279
 N         -3.3742944546       -1.8794155670        1.0932730366
 S         -3.6715641101       -1.7779842602       -0.5614079459
 O         -4.8782058664       -2.5585830327       -0.7493599724
 O         -2.5232143926       -2.2028232568       -1.3267059223
 C         -4.0531895197       -0.0645760986       -0.8507024010
 C         -3.2170079604        0.7106813547       -1.6298420616
 C         -3.5463172820        2.0422798956       -1.8341248370
 C         -4.6935144340        2.5697128927       -1.2611355892
 C         -5.5221167652        1.7747063063       -0.4831298876
 C         -5.2022873033        0.4428119201       -0.2760041764
 H         -5.8202106682       -0.2128320686        0.3144752279
 H         -6.4120917636        2.1893863685       -0.0379812613
 H         -4.9402895077        3.6075944014       -1.4216310568
 H         -2.8974683726        2.6606439408       -2.4344510233
 H         -2.3144070174        0.2751646161       -2.0314276397
 H         -3.7377799639       -2.7524273857        1.4506593496
 H         -1.7930478190       -3.4219747562        2.5997322302
 H          0.4688175083       -2.8147211254        3.3800105698
 H          1.4598199599       -0.6468232140        2.7396713544
 H          0.8731410153        1.7213542582        2.1457842254
 C         -0.5410926497        2.3154598392        0.6527791646
 C         -1.5202608739        3.0206278474        1.5417009398
 C         -0.3553937294        3.7681200923        0.9675208098
 H         -0.5382633632        4.4904349004        0.1864686217
 H          0.4562589700        4.0365708497        1.6278675415
 H         -2.5069595255        3.2268788897        1.1554517907
 H         -1.4990683770        2.7806957083        2.5938471280
 H         -0.8607592020        2.0634017878       -0.3507949229
