  62
        -98.94486792
 C         -1.9211729196       -0.3624070507       -0.6850776092
 C         -2.9633008496       -1.2509043403       -0.3263951385
 C         -4.3175151696       -0.6879217003       -0.3435955091
 C         -4.5016264195        0.5953908394       -0.7038323403
 C         -5.8246624595        1.3063169994       -0.7965400410
 C         -6.3283601896        1.8671378605        0.5404843585
 C         -6.8322088997        0.8217824114        1.5364468993
 H         -7.5651067497        0.1793891610        1.0473056998
 H         -7.3511341898        1.3612243721        2.3313205488
 C         -5.7269379598       -0.0388817881        2.1641315902
 H         -5.8865121999       -0.1065431172        3.2426212402
 H         -4.7593185998        0.4455763717        2.0136593899
 C         -5.6546475698       -1.4679400986        1.6260725514
 H         -6.5697141799       -2.0043301983        1.8865307618
 H         -4.8172239399       -1.9753310182        2.1116024619
 C         -5.4490724097       -1.5611184399        0.1084062415
 H         -6.3679620596       -1.2944277403       -0.4131068388
 H         -5.1916677497       -2.5935780901       -0.1401793276
 H         -7.1507101795        2.5508160004        0.3172162778
 H         -5.5262871096        2.4508270409        0.9982995181
 H         -6.5735598795        0.6337776691       -1.2158768905
 H         -5.6806025294        2.1402514488       -1.4869146217
 O         -3.4739155795        1.4133871591       -1.0557653009
 C         -2.1600311995        0.9650610490       -1.0398794304
 O         -1.3214163594        1.8281894287       -1.3611605410
 O         -2.7698184997       -2.4543961501       -0.0073226275
 C         -0.4921605796       -0.8765612407       -0.6874560786
 C          0.3459747604       -0.0586072700        0.2623110207
 C         -0.0629299998        0.0403089412        1.5910096006
 C          0.6477948502        0.8032582819        2.4954823600
 C          1.7911087803        1.4756455115        2.0983325596
 C          2.2124491704        1.3787021804        0.7787040297
 C          1.4950987004        0.6087236496       -0.1287991397
 H          1.8383852805        0.5682802088       -1.1482887297
 N          3.3617969104        2.0607211000        0.3464415292
 S          4.5002168805        1.2734565791       -0.5904517800
 O          5.6831651305        2.1000395792       -0.4937273406
 O          3.9921338706        1.0422564180       -1.9177565099
 C          4.7660850103       -0.2724534602        0.2574511713
 C          5.5762632002       -0.2708640492        1.3765171614
 C          5.7368889401       -1.4471192986        2.0899911624
 C          5.0795569601       -2.5973736090        1.6798810333
 C          4.2705791402       -2.5822400799        0.5544571832
 C          4.1093163203       -1.4093494305       -0.1664894278
 H          3.4918348304       -1.3594395012       -1.0478374679
 H          3.7619138002       -3.4780841201        0.2356203240
 H          5.1999255800       -3.5120492385        2.2386459641
 H          6.3693285701       -1.4637682379        2.9629117025
 H          6.0767609903        0.6422800310        1.6553808107
 H          3.8106945104        2.6123036106        1.0629907688
 H          2.3444453002        2.0804589021        2.8006428391
 H          0.3129115401        0.8756139028        3.5192461299
 H         -0.9575964798       -0.4832460885        1.8995552910
 H         -0.5546109597       -1.9031961304       -0.2970984778
 C          0.0469359305       -0.9273978720       -2.1006371985
 C          1.0816417205       -1.9440412323       -2.4759556576
 C         -0.3236941094       -2.0845620527       -2.9773628176
 H         -0.5237292293       -1.8961763336       -4.0215041378
 H         -0.9462174595       -2.8543224223       -2.5450461870
 H          1.8537789106       -1.6590494830       -3.1756050078
 H          1.4066083904       -2.6290917517       -1.7072817570
 H          0.0974106606        0.0500960876       -2.5679192094
