  62
        -98.94100618
 C          2.0297205806       -0.7414728045        0.3926633177
 C          3.1749958802       -1.2818657760       -0.2491657392
 C          4.4516124990       -0.6047765468        0.0107708403
 C          4.4683981633        0.4789209821        0.8072819444
 C          5.6873573321        1.2974720135        1.1173477553
 C          5.8535448967        2.4489310265        0.1159904239
 C          5.7418023737        2.0169794787       -1.3461839945
 H          4.7215323279        1.6780246584       -1.5404852334
 H          5.9067790414        2.9048082050       -1.9605036925
 C          6.7293230947        0.9172704438       -1.7610546590
 H          7.1690804792        1.1870603326       -2.7235496036
 H          7.5439619642        0.8591044734       -1.0382588580
 C          6.1023132325       -0.4678255442       -1.9306451127
 H          5.2272439487       -0.3965004670       -2.5814415103
 H          6.8305192627       -1.1112968100       -2.4314944621
 C          5.6831805559       -1.1743853703       -0.6353154747
 H          5.4385058255       -2.2104196443       -0.8873252503
 H          6.5189353816       -1.1801152679        0.0674767802
 H          5.0787282004        3.1936282857        0.3129144608
 H          6.8250779205        2.9165652190        0.2861825672
 H          5.5763959432        1.7134518145        2.1202339107
 H          6.5651594488        0.6543452829        1.0966199680
 O          3.3518329615        0.9827503265        1.3878276859
 C          2.1033178873        0.4002170268        1.1929951084
 O          1.1825105437        0.9922032693        1.7847609407
 O          3.1303098250       -2.2874827488       -1.0065174823
 C          0.7005156054       -1.4270133902        0.1243715150
 C         -0.3324527200       -0.4142200382       -0.2962034080
 C         -0.2931726245        0.0989625019       -1.5890983663
 C         -1.2091059581        1.0483307084       -2.0023077141
 C         -2.1816747212        1.5087119928       -1.1326896588
 C         -2.2265605399        1.0056427670        0.1606706996
 C         -1.3165344842        0.0392309553        0.5681696329
 H         -1.3493489539       -0.3298278093        1.5812681435
 N         -3.2089499131        1.4754959973        1.0502527767
 S         -4.7973030018        1.4784882930        0.5287491546
 O         -5.0179508316        2.5938575794       -0.3573683423
 O         -5.5965048946        1.4570662469        1.7333377733
 C         -4.9731536039       -0.0540366099       -0.3668694861
 C         -5.0565631559       -0.0457954474       -1.7440707375
 C         -5.1231787711       -1.2551105199       -2.4178646234
 C         -5.1019663343       -2.4445750740       -1.7067424036
 C         -5.0221202564       -2.4361313004       -0.3223009901
 C         -4.9531681318       -1.2305620136        0.3561398085
 H         -4.8972339510       -1.1840384184        1.4319353582
 H         -5.0089455500       -3.3631118908        0.2283345666
 H         -5.1495890920       -3.3846235668       -2.2334133500
 H         -5.1874927397       -1.2652138706       -3.4939276208
 H         -5.0730879293        0.9007015189       -2.2586909400
 H         -3.1266840840        1.0979872825        1.9823985642
 H         -2.8960993245        2.2592996599       -1.4298219831
 H         -1.1637890054        1.4381448010       -3.0078972721
 H          0.4735591263       -0.2512049282       -2.2665224413
 H          0.9062512192       -2.0799534134       -0.7392921207
 C          0.2177320343       -2.3379990962        1.2434382664
 C          1.1931539528       -3.1561533751        2.0342302431
 C          0.4363272838       -2.0459333728        2.6965704999
 H         -0.3481871141       -2.3074905145        3.3922840948
 H          0.9659791792       -1.1438484024        2.9594098822
 H          0.9347440191       -4.1754323919        2.2784326597
 H          2.2441598835       -3.0072661265        1.8334348317
 H         -0.7187613379       -2.8230077457        0.9843425657
