  62
        -98.94111011
 C          0.7804417464        1.2022721300        0.0002889961
 C          1.4947859050        0.5127607542        1.0069045573
 C          2.4517461469       -0.5073744950        0.5464175293
 C          2.5692913527       -0.7544365974       -0.7694882391
 C          3.5105724361       -1.7065821353       -1.4650567182
 C          4.9592315722       -1.7626525988       -0.9581922608
 C          5.5134000793       -0.4402995987       -0.4082725490
 H          6.4700755009       -0.2286813848       -0.8894914484
 H          4.8378793919        0.3815120661       -0.6513590370
 C          5.7476819404       -0.4767182847        1.1040061350
 H          6.2027962509       -1.4347817379        1.3649374706
 H          6.4624179888        0.3061864570        1.3689482693
 C          4.5037306620       -0.2629083992        1.9661845117
 H          4.7792826372       -0.4463126755        3.0077215513
 H          4.1811373193        0.7796932572        1.9006914286
 C          3.2943473382       -1.1442269416        1.6137204417
 H          3.6077565588       -2.1477940454        1.3360840741
 H          2.6587325031       -1.2103732673        2.5014743975
 H          5.0462056676       -2.5278918827       -0.1880274842
 H          5.5738385723       -2.0923234126       -1.7975336883
 H          3.0866989636       -2.7128606591       -1.4252005173
 H          3.5024601137       -1.3941446147       -2.5117595956
 O          1.7858407840       -0.1354812950       -1.6963700576
 C          0.8865618278        0.8585342331       -1.3463141453
 O          0.2630273931        1.3467613538       -2.3062254659
 O          1.3556130139        0.7503455044        2.2373661544
 C         -0.1105535766        2.3669718204        0.3942469816
 C         -1.5267331015        2.1345139985       -0.0642253079
 C         -2.2041319316        2.9823460269       -0.9304500906
 C         -3.5013479072        2.6952363998       -1.3173205692
 C         -4.1465301516        1.5652947425       -0.8514643597
 C         -3.4810642655        0.7166335863        0.0274487949
 C         -2.1833964889        1.0074050741        0.4162351018
 H         -1.6750525957        0.3531707562        1.1104367464
 N         -4.1202844499       -0.4243263210        0.5289584411
 S         -3.2680073128       -1.7339162252        1.0902218968
 O         -4.2251482202       -2.8203581581        1.0509122198
 O         -2.7076435925       -1.4502508042        2.3880033161
 C         -1.9626512909       -2.0688661106       -0.0791445862
 C         -2.1776171632       -1.8936477253       -1.4312679304
 C         -1.1704261746       -2.2355571225       -2.3188029912
 C          0.0198409628       -2.7636095181       -1.8455731886
 C          0.2193351164       -2.9366905978       -0.4850278718
 C         -0.7769683406       -2.5791861839        0.4077553673
 H         -0.6533093118       -2.6794980649        1.4746291287
 H          1.1435472089       -3.3460045278       -0.1098695325
 H          0.7961163813       -3.0351053322       -2.5433253296
 H         -1.3163326787       -2.0884007239       -3.3767091463
 H         -3.1133275028       -1.4903110994       -1.7823814260
 H         -4.9922284572       -0.6753594513        0.0887274398
 H         -5.1565261883        1.3394582469       -1.1570239692
 H         -4.0149426875        3.3583178265       -1.9966039239
 H         -1.7153563457        3.8631849836       -1.3113134761
 H         -0.1085104756        2.3765548807        1.4943284550
 C          0.4899907006        3.6649958894       -0.1062506587
 C          0.1574792930        4.9587717537        0.5730142737
 C          1.5215059019        4.3585585529        0.7300128167
 H          2.3555594249        4.8319972763        0.2337944574
 H          1.7775112572        3.9071191735        1.6776550705
 H          0.0562916824        5.8480933450       -0.0303396244
 H         -0.5137508703        4.9198636330        1.4175424099
 H          0.6345337997        3.6723563188       -1.1809928881
