  62
        -98.93652197
 C         -1.6450774339       -1.0304969329        0.2210236968
 C         -2.8434574188       -0.8131453716        0.9510121249
 C         -3.5711603526        0.4386170290        0.6856767966
 C         -3.0546578026        1.3272011004       -0.1793687221
 C         -3.5816422037        2.6879767236       -0.5606867504
 C         -5.0922133945        2.8231418373       -0.7935955726
 C         -5.7690446127        1.5832397503       -1.3960182541
 H         -6.3571576494        1.8862843415       -2.2643452248
 H         -5.0143332786        0.8766010478       -1.7457982111
 C         -6.7100839380        0.8801094963       -0.4147395601
 H         -7.2923891641        1.6370237776        0.1152700578
 H         -7.4134936017        0.2654710856       -0.9818052863
 C         -6.0315331252       -0.0333372553        0.6055379706
 H         -5.6371026184       -0.9208625789        0.1027599046
 H         -6.7944746390       -0.3780116019        1.3077201715
 C         -4.8805841889        0.6029865967        1.4018194824
 H         -5.0882792268        1.6459774963        1.6280404876
 H         -4.7803549667        0.0557359555        2.3431050179
 H         -5.5853075795        3.0760297010        0.1439353234
 H         -5.2330316434        3.6749208340       -1.4612542387
 H         -3.2747092531        3.3995296985        0.2114078280
 H         -3.0467541121        2.9544459535       -1.4756195693
 O         -1.8858615464        1.0957189655       -0.8365244876
 C         -1.1618932419       -0.0795018215       -0.6784450406
 O         -0.1434629624       -0.1250131958       -1.3923300817
 O         -3.2843988338       -1.6299782058        1.8018282293
 C         -0.8719246922       -2.3027497626        0.5298442586
 C          0.5444076192       -1.9361383977        0.8877152092
 C          0.8480433468       -1.5260672669        2.1823725447
 C          2.1241835450       -1.1052737196        2.5087241076
 C          3.1129907765       -1.0494850768        1.5418324950
 C          2.8102992341       -1.4344285050        0.2422822125
 C          1.5439768663       -1.9091797553       -0.0714108539
 H          1.3218019106       -2.2089950403       -1.0833085078
 N          3.7843512246       -1.3135329972       -0.7629815690
 S          4.7413541809        0.0579716003       -0.7552366880
 O          5.0775785227        0.2962052801       -2.1424953417
 O          5.8675532764       -0.1563028988        0.1227931801
 C          3.7555481406        1.4058630649       -0.1153584789
 C          2.4617867858        1.5868047325       -0.5609615982
 C          1.7263670684        2.6495055094       -0.0596502036
 C          2.2923412996        3.5157487721        0.8619933651
 C          3.5963600764        3.3250994544        1.2925413326
 C          4.3345934077        2.2603218321        0.8026091524
 H          5.3467932552        2.0676683488        1.1198361221
 H          4.0367831260        3.9986276766        2.0100253330
 H          1.7127807025        4.3399585922        1.2473065803
 H          0.7082632126        2.7793595403       -0.3927402883
 H          2.0112108310        0.9032780423       -1.2631002223
 H          3.4269561891       -1.4945293502       -1.6899765532
 H          4.1093039096       -0.7075707252        1.7724981293
 H          2.3496761309       -0.8032153218        3.5199815185
 H          0.0675074049       -1.5332586304        2.9302195814
 H         -1.3620928766       -2.7040538335        1.4309299744
 C         -0.9551491360       -3.3926558958       -0.5279176328
 C         -2.2624357399       -3.6961749726       -1.1957021581
 C         -1.1302849891       -3.1220261154       -1.9907611469
 H         -0.6184650766       -3.7676990082       -2.6900195775
 H         -1.1961435953       -2.0963726622       -2.3167890786
 H         -2.5377761214       -4.7276834027       -1.3552689270
 H         -3.0971054135       -3.0514400987       -0.9610565682
 H         -0.3362718120       -4.2464675051       -0.2678027960
