  62
        -98.94349776
 C         -1.9729622535       -0.7911630380        0.5428503783
 C         -2.1232476553       -0.1233145279       -0.6962261026
 C         -2.3536116683        1.3233956577       -0.6150100066
 C         -2.3550595468        1.9347066270        0.5832400007
 C         -2.5301146723        3.4097970141        0.8246970421
 C         -3.9937922977        3.8708221896        0.8614647879
 C         -4.7023627684        3.8959669594       -0.4933955555
 H         -4.0996053306        4.4602079550       -1.2055088829
 H         -5.6388525968        4.4396157350       -0.3544484829
 C         -5.0174199236        2.5080317107       -1.0683251725
 H         -6.0461670382        2.4904691671       -1.4348290872
 H         -4.9464950080        1.7607022432       -0.2747227954
 C         -4.1158843062        2.0830616696       -2.2273515346
 H         -4.2723937999        2.7504250757       -3.0776044490
 H         -4.4027635781        1.0737580770       -2.5326299617
 C         -2.6192170908        2.0666749034       -1.8892819558
 H         -2.2351166438        3.0844620995       -1.8219805525
 H         -2.0891830140        1.5451977636       -2.6901506801
 H         -4.0050770047        4.8826747190        1.2730703854
 H         -4.5445115044        3.2255804486        1.5497686839
 H         -1.9867339347        3.9693344110        0.0625787610
 H         -2.0759260328        3.6192322732        1.7958041136
 O         -2.1717608765        1.2611621922        1.7513750448
 C         -1.9818985452       -0.1109872102        1.7587833360
 O         -1.8367096313       -0.6040474695        2.8984401163
 O         -2.0646791746       -0.7027056467       -1.8124967577
 C         -1.7009924509       -2.2827305782        0.5670429184
 C         -0.4270495816       -2.5954604767       -0.1834744570
 C         -0.2514437028       -3.7607114739       -0.9192947681
 C          0.9481885193       -4.0049491881       -1.5656695630
 C          1.9902087843       -3.0994859090       -1.4970677333
 C          1.8218739654       -1.9260273617       -0.7682312104
 C          0.6275689673       -1.6950344750       -0.1071804458
 H          0.5138005841       -0.7888747507        0.4705760253
 N          2.8404556196       -0.9599956700       -0.7292014735
 S          2.8681783703        0.2173183102        0.4708503839
 O          2.8394708311       -0.3941213153        1.7823140409
 O          1.8472926234        1.1975345016        0.1936063841
 C          4.4767107427        0.9222740896        0.1627924768
 C          5.5507151132        0.5378310207        0.9429144733
 C          6.8006953333        1.0735589885        0.6742704571
 C          6.9551449988        1.9771674130       -0.3661670675
 C          5.8676120725        2.3543480005       -1.1402504582
 C          4.6151298653        1.8234448114       -0.8761161368
 H          3.7389523038        2.0922467657       -1.4431219859
 H          5.9905424197        3.0593430511       -1.9464773223
 H          7.9285422193        2.3927474696       -0.5733379127
 H          7.6468546859        0.7848907628        1.2765861844
 H          5.3797815730       -0.1609132092        1.7459946078
 H          3.7588957417       -1.3288215472       -0.9312976796
 H          2.9210062126       -3.2881542907       -2.0091997070
 H          1.0725765088       -4.9150391706       -2.1326158867
 H         -1.0545250705       -4.4763183465       -0.9873042541
 H         -1.5417472135       -2.5460607939        1.6243876076
 C         -2.9015282192       -3.0481067017        0.0468622467
 C         -3.2460988895       -4.3952874680        0.6050608615
 C         -4.0960245596       -3.2070010560        0.9373187932
 H         -5.0800710553       -3.1338799935        0.4993545969
 H         -4.0282271153       -2.7893079176        1.9318265108
 H         -3.6516426017       -5.1413372311       -0.0616550486
 H         -2.6105050360       -4.7927376668        1.3821298229
 H         -3.0821863011       -2.8652991419       -1.0061067914
