  62
        -98.93896262
 C         -1.9779839681       -0.8722182729       -0.4532926880
 C         -3.0304537419       -1.1791054032        0.4421493038
 C         -4.3309315086       -0.5389759287        0.1830372612
 C         -4.4518395451        0.3129385226       -0.8522230885
 C         -5.6472675468        1.0830814006       -1.3731100749
 C         -6.9044411214        1.2447898186       -0.5222800155
 C         -6.7240439474        2.0984407171        0.7324427626
 H         -7.6546017835        2.0658460698        1.3034391610
 H         -6.5576258843        3.1346583334        0.4271248403
 C         -5.5676658941        1.6961013754        1.6445173820
 H         -5.5593986913        2.3828247985        2.4954003402
 H         -4.6204664839        1.8289255678        1.1172909084
 C         -5.6341562526        0.2733841074        2.1965183415
 H         -6.5936686238        0.1160363669        2.6928260250
 H         -4.8478307890        0.1769072960        2.9499115757
 C         -5.4247395114       -0.8482481657        1.1641425211
 H         -6.3497731016       -1.0869105235        0.6449296479
 H         -5.1091339712       -1.7466248962        1.7024251988
 H         -7.3135682670        0.2722559206       -0.2650385085
 H         -7.6450672392        1.7419169154       -1.1547610898
 H         -5.9274809463        0.5966828590       -2.3141551615
 H         -5.2669579623        2.0739930304       -1.6412329881
 O         -3.4048224654        0.5845738092       -1.6847978385
 C         -2.1524729245        0.0169571166       -1.5117076477
 O         -1.3112730602        0.3788821698       -2.3564417717
 O         -2.8929231302       -1.9645616888        1.4173824434
 C         -0.6175525456       -1.5018946389       -0.2063109727
 C          0.3362317588       -0.4206850938        0.2356770523
 C          0.2796282095        0.0380108195        1.5490022492
 C          1.1188493114        1.0466021003        1.9836567495
 C          2.0336764518        1.6194660240        1.1171980075
 C          2.0929115930        1.1722963395       -0.1954866576
 C          1.2556725479        0.1528279605       -0.6284692300
 H          1.3044221560       -0.1735979883       -1.6550733906
 N          3.0384916290        1.7395657651       -1.0720105371
 S          4.6305042038        1.6899295434       -0.5514491941
 O          4.8740031925        2.7804292975        0.3593873685
 O          5.4341817641        1.6796228071       -1.7535339319
 C          4.7607003638        0.1347068062        0.3140486073
 C          4.6045988146       -1.0272117532       -0.4157590142
 C          4.6280909219       -2.2433407668        0.2464994607
 C          4.8017071287       -2.2762525666        1.6218013372
 C          4.9611034981       -1.1013960205        2.3396402220
 C          4.9374665299        0.1183181147        1.6822418622
 H          5.0530157463        1.0551972942        2.2020589355
 H          5.0974248372       -1.1309158381        3.4086391401
 H          4.8128087317       -3.2243230846        2.1360644598
 H          4.5046616857       -3.1587772378       -0.3097803201
 H          4.4760607070       -0.9657803085       -1.4844787353
 H          2.9575038834        1.4021097456       -2.0202227337
 H          2.6991066743        2.4063662818        1.4339970589
 H          1.0626088542        1.3906053076        3.0051461053
 H         -0.4398600643       -0.4050966937        2.2232985663
 H         -0.7671792598       -2.1876397706        0.6384876643
 C         -0.1269796794       -2.2952765306       -1.3991805149
 C          1.0488687512       -3.2100844191       -1.2321492828
 C         -0.3236042243       -3.7800024668       -1.4243182059
 H         -0.5605258220       -4.2511638175       -2.3665776868
 H         -0.8137415923       -4.2333555878       -0.5754245149
 H          1.7566135117       -3.2933301271       -2.0427917890
 H          1.4923014038       -3.2708837197       -0.2498811840
 H         -0.2315442532       -1.7663278069       -2.3389365738
