  62
        -98.93353987
 C         -2.4039052283       -1.5137063202        0.3383042645
 C         -2.7147077130       -0.6478022909       -0.7377055492
 C         -3.4733743008        0.5645098212       -0.3896097688
 C         -3.8287346669        0.7947080822        0.8859400479
 C         -4.6171045783        1.9678953008        1.4037494010
 C         -3.9242011910        3.3407544309        1.2994262963
 C         -4.2840611834        4.1360648860        0.0382991368
 H         -5.2555760191        3.7985375212       -0.3247994984
 H         -4.3976971271        5.1879261237        0.3079863874
 C         -3.2639004604        4.0781201032       -1.1029713757
 H         -3.7463897942        4.4673229706       -2.0022690802
 H         -2.4253678533        4.7378762138       -0.8676016072
 C         -2.6809786185        2.6987037091       -1.4133575241
 H         -1.9333786163        2.4375478237       -0.6583745775
 H         -2.1426910939        2.7631349898       -2.3617975804
 C         -3.7190988439        1.5610831905       -1.4851208120
 H         -4.7306239476        1.9589611750       -1.4243368337
 H         -3.6145055414        1.0227174740       -2.4292888176
 H         -4.2376507632        3.9209109924        2.1688163390
 H         -2.8441725959        3.2093329376        1.3722493328
 H         -5.5773110703        2.0053807392        0.8846791249
 H         -4.8123973186        1.7460575472        2.4547569555
 O         -3.5232142846       -0.0701382660        1.8910332102
 C         -2.7906854843       -1.2180913501        1.6490942812
 O         -2.5593802993       -1.8995545126        2.6677059612
 H         -0.2274169896       -0.9872003959       -1.3023625026
 C          0.4112487569       -1.4571615620       -0.5685012327
 C         -0.1163902249       -2.4347474611        0.2650516486
 C          0.7184600256       -3.0253564909        1.2051381341
 C          2.0450078576       -2.6418001891        1.3077632483
 C          2.5624608130       -1.6594553442        0.4820688978
 C          1.7342003545       -1.0622344251       -0.4591034855
 N          2.2449156758       -0.0347524687       -1.2862152298
 S          2.6048007140        1.3915070665       -0.4624899041
 O          1.7525824687        1.5601669803        0.6943401765
 O          2.5523172927        2.4402035322       -1.4576193152
 C          4.2931383149        1.1525280213        0.0472932197
 C          5.2494841040        0.9879590076       -0.9359890373
 C          6.5681880929        0.7900076773       -0.5595467277
 C          6.9061853713        0.7625321506        0.7855987695
 C          5.9346121207        0.9328032158        1.7601311041
 C          4.6129327418        1.1296652209        1.3903894669
 H          3.8217241250        1.2591290435        2.1116392698
 H          6.1990369313        0.9112215607        2.8051705647
 H          7.9331129404        0.6074132249        1.0764926977
 H          7.3266081579        0.6572822925       -1.3141314792
 H          4.9425906438        1.0207973960       -1.9679949168
 H          1.6195017825        0.1837991980       -2.0509657566
 H          3.5922187782       -1.3511708598        0.5628447120
 H          2.6811787910       -3.1079860553        2.0444117884
 H          0.3150491049       -3.7729663850        1.8723702213
 C         -1.5801832903       -2.7836224318        0.1788131831
 H         -1.8282521405       -3.3993443443        1.0572444990
 C         -1.9471690085       -3.5873529086       -1.0611831332
 C         -1.0168336761       -3.8114348496       -2.2121507034
 C         -1.3301678039       -4.9378797342       -1.2771080546
 H         -1.9571981396       -5.7448774203       -1.6241611205
 H         -0.5564211667       -5.2421657573       -0.5882739616
 H         -1.4448472560       -3.8208053168       -3.2030077032
 H         -0.0317474110       -3.3741674226       -2.1695166877
 H         -2.9986641649       -3.4885549616       -1.3095217625
 O         -2.3847939190       -0.8510525496       -1.9359276167
