  62
        -98.94434612
 C         -1.8436817690       -0.7946840522        0.2591767822
 C         -2.3375193571        0.5281462277        0.1570956348
 C         -3.7731140313        0.6911628233        0.4213829993
 C         -4.5177334057       -0.3759957705        0.7632146520
 C         -5.9891093508       -0.3652844964        1.0780523217
 C         -6.8917514292       -0.4390414601       -0.1611434716
 C         -6.9487174102        0.8369281847       -1.0020978717
 H         -7.7761730769        0.7204978311       -1.7048388099
 H         -7.1852863720        1.6848788383       -0.3586292210
 C         -5.6674715644        1.1318785495       -1.7946352325
 H         -5.0577590239        0.2272525137       -1.8527245157
 H         -5.9280051847        1.4077158436       -2.8190355629
 C         -4.8153803851        2.2656549456       -1.2238569701
 H         -5.3679820195        3.2059847084       -1.2842562818
 H         -3.9174297202        2.3634270193       -1.8396001818
 C         -4.3712811894        2.0519220735        0.2291776919
 H         -3.5995161489        2.7892890730        0.4640647929
 H         -5.2132787429        2.1985034528        0.9053681308
 H         -6.5605913534       -1.2720483402       -0.7854639281
 H         -7.9027896507       -0.6649440314        0.1855104321
 H         -6.1813335799       -1.2449466482        1.6960375910
 H         -6.2343804645        0.5260845945        1.6559759021
 O         -3.9956246120       -1.6257363388        0.8833381337
 C         -2.6578559740       -1.8693021873        0.6163510044
 O         -2.3171175929       -3.0630588799        0.7413079840
 O         -1.6227028971        1.5212706422       -0.1371631601
 C         -0.3828051117       -1.0824906114       -0.0401760387
 C          0.5022423943       -0.2435366455        0.8476038061
 C          0.2725370054       -0.2606676159        2.2218693132
 C          1.0397852233        0.5043095588        3.0771572787
 C          2.0633705192        1.2941220344        2.5825977593
 C          2.3077878389        1.3109269687        1.2154845660
 C          1.5368049160        0.5366643377        0.3568275295
 H          1.7392583967        0.5833819907       -0.6998652709
 N          3.3343271253        2.1061360000        0.6890384727
 S          4.2269207576        1.5934527167       -0.6205033021
 O          5.4665104907        2.3348156894       -0.5209631360
 O          3.4897362843        1.7718390229       -1.8458069171
 C          4.5371682496       -0.1427541107       -0.3442417672
 C          4.3267821827       -1.0373320629       -1.3726425830
 C          4.5813224844       -2.3826141591       -1.1578987608
 C          5.0382856605       -2.8085160845        0.0791259811
 C          5.2503114449       -1.8967828003        1.1020969307
 C          5.0012945049       -0.5506181705        0.8909423592
 H          5.1651688427        0.1787206038        1.6670835925
 H          5.6076513128       -2.2311384790        2.0626778524
 H          5.2313022190       -3.8564189375        0.2465478056
 H          4.4194214236       -3.0910384586       -1.9546872361
 H          3.9644324328       -0.6641358632       -2.3165759610
 H          3.8956199559        2.5954289135        1.3695688593
 H          2.6583340553        1.9018354463        3.2471936773
 H          0.8423295845        0.4865493317        4.1383712083
 H         -0.5298793397       -0.8754935290        2.6068838786
 H         -0.2220408564       -2.1397393695        0.2167300246
 C         -0.1197888366       -0.8963036286       -1.5196536007
 C          0.9484842237       -1.6915295304       -2.2048275374
 C         -0.4954617300       -1.9992039463       -2.4616222485
 H         -0.9183692253       -1.7383538956       -3.4202895658
 H         -0.9142599559       -2.8963495128       -2.0289383760
 H          1.5158106858       -1.2140828155       -2.9895021418
 H          1.5172153944       -2.3851389696       -1.6044258651
 H         -0.2900673881        0.1224114380       -1.8503567975
