  62
        -98.93218249
 C          2.5969942747        1.2450087816        0.1879354438
 C          2.9877703958        0.2573480186        1.1245044884
 C          4.1629692809       -0.5695088794        0.7928678509
 C          4.8042544498       -0.3378808827       -0.3674852290
 C          5.9877375975       -1.0700551003       -0.9417101689
 C          5.6062671626       -2.4372160921       -1.5325827266
 C          4.6500715436       -3.2639461666       -0.6767174468
 H          3.7366570485       -2.6915154354       -0.5043310680
 H          4.3721145092       -4.1507928063       -1.2523580359
 C          5.2150729022       -3.7347601435        0.6613415833
 H          4.4622023806       -4.3793645276        1.1221780092
 H          6.1054430372       -4.3412573528        0.4807610585
 C          5.5729128177       -2.6338659573        1.6619129747
 H          5.7270215511       -3.1142487640        2.6326766000
 H          6.5143373662       -2.1577687485        1.4013130354
 C          4.4884839020       -1.5804546031        1.8658738082
 H          3.5428899023       -2.0800517840        2.1054298915
 H          4.7367285291       -0.9930981122        2.7583973527
 H          6.5218992525       -3.0035603131       -1.7110133756
 H          5.1227664195       -2.2642000098       -2.4970940204
 H          6.3850441957       -0.4436220882       -1.7433966142
 H          6.7632350703       -1.1751795449       -0.1888254068
 O          4.3991123411        0.6290296410       -1.2370899434
 C          3.2954443770        1.4341768422       -1.0046344775
 O          3.0687744111        2.2492646194       -1.9168278002
 H         -0.8213341540        1.3156999413        1.9088008821
 C         -0.9151680990        1.1059074794        0.8517169063
 C          0.1294157854        1.4305391643       -0.0005178528
 C          0.0026576844        1.1358454112       -1.3549265990
 C         -1.1468765649        0.5355031539       -1.8346167158
 C         -2.1850018825        0.2071995355       -0.9793862169
 C         -2.0675795605        0.4924768439        0.3739082820
 N         -3.0999818609        0.1367805005        1.2531650088
 S         -4.6958228370        0.4225239261        0.8294260742
 O         -4.8151461472        1.5752459731       -0.0323645913
 O         -5.4093425465        0.4823072678        2.0860008525
 C         -5.1807951669       -1.0511784678       -0.0440376227
 C         -5.7561572641       -0.9510723774       -1.2955474043
 C         -6.1397516057       -2.1104502082       -1.9516873770
 C         -5.9431538710       -3.3425780204       -1.3473273898
 C         -5.3664077659       -3.4258232886       -0.0886437811
 C         -4.9822392541       -2.2706810955        0.5731813795
 H         -4.5342763089       -2.2938045184        1.5526275516
 H         -5.2150800611       -4.3858876817        0.3780804950
 H         -6.2410965028       -4.2435188430       -1.8600671553
 H         -6.5887652409       -2.0478974365       -2.9299431539
 H         -5.8849001493        0.0278919157       -1.7294245680
 H         -2.9231703808        0.3683032108        2.2194246759
 H         -3.0797044183       -0.2640592614       -1.3517501404
 H         -1.2347708139        0.3151781828       -2.8877967609
 H          0.8144276144        1.3837100845       -2.0223537088
 C          1.3776007706        2.0755109123        0.5459906337
 H          1.3200984366        2.0217923715        1.6449597256
 C          1.5145739905        3.5450103242        0.1744330667
 C          0.6863733843        4.2261140291       -0.8691546086
 C          0.4475498711        4.5192191632        0.5797331636
 H          0.7427221761        5.4797466736        0.9740528468
 H         -0.4495571055        4.1153063895        1.0258771065
 H          1.1710465470        4.9723294820       -1.4798787829
 H         -0.0542430436        3.6475602344       -1.3980612810
 H          2.5402708629        3.8881233661        0.2638985547
 O          2.3742766939        0.0687235540        2.2108773505
