  62
        -98.93806778
 C          2.1856229625       -0.9212600015        0.0153938089
 C          2.9132434898       -0.1838854247       -0.9440419864
 C          3.7530659538        0.9216418275       -0.4426291444
 C          3.7534272049        1.1844277122        0.8778963423
 C          4.5505445622        2.2240221024        1.6199486533
 C          6.0255576584        1.8263545861        1.7926071514
 C          6.6830370864        1.2368068711        0.5475396167
 H          6.1206243915        0.3579556606        0.2269489408
 H          7.6826795321        0.8961905860        0.8297892378
 C          6.8333064593        2.2001328613       -0.6274695083
 H          7.3911188120        1.6758283658       -1.4076305529
 H          7.4306704571        3.0587936005       -0.3129043177
 C          5.5299933209        2.7151315598       -1.2417693046
 H          5.7829709569        3.1817398004       -2.1984470528
 H          5.0872095740        3.4943645522       -0.6271889062
 C          4.4977877394        1.6338543709       -1.5463859944
 H          4.9690281963        0.8478795011       -2.1476961922
 H          3.7238659619        2.0639982825       -2.1943751838
 H          6.0814950382        1.0757140971        2.5846097464
 H          6.5833214775        2.7051177384        2.1204408552
 H          4.0977984258        2.3175316638        2.6095102219
 H          4.4635698934        3.1862738598        1.1240438732
 O          3.0086372824        0.4637722647        1.7645994217
 C          2.2135213189       -0.5968584689        1.3712843513
 O          1.5943820153       -1.1515892710        2.2978292810
 O          2.8687675288       -0.4342268404       -2.1807656901
 C          1.3212729868       -2.0810216354       -0.4409104901
 C         -0.1258140688       -1.8369660871       -0.0877737218
 C         -0.9551870854       -2.8155340944        0.4438495931
 C         -2.2801613132       -2.5331701128        0.7289766647
 C         -2.8070022541       -1.2777821888        0.4902829284
 C         -1.9906590185       -0.2946080688       -0.0539175146
 C         -0.6662780174       -0.5823961300       -0.3436820358
 H         -0.0329617406        0.1856617119       -0.7722563174
 N         -2.5167035451        0.9886190860       -0.2937097125
 S         -3.9045450601        1.0970993658       -1.2355747918
 O         -3.9842036205        0.0096941057       -2.1836659355
 O         -3.8813978415        2.4330497497       -1.7905824189
 C         -5.2354805864        0.9796121922       -0.0593133159
 C         -6.2011610752        0.0035165821       -0.2088149284
 C         -7.2336232438       -0.0639755508        0.7137669848
 C         -7.2818076043        0.8410639681        1.7630069299
 C         -6.3053473185        1.8170109358        1.8973273270
 C         -5.2713155328        1.8909859176        0.9778021939
 H         -4.4950780937        2.6350771231        1.0443037830
 H         -6.3459063483        2.5188318646        2.7147535698
 H         -8.0850491334        0.7858247928        2.4806744657
 H         -7.9937192836       -0.8216572892        0.6110598820
 H         -6.1182875189       -0.6820165273       -1.0369777079
 H         -1.8264805013        1.6524562443       -0.6143815612
 H         -3.8354461247       -1.0519855375        0.7197292199
 H         -2.9105289803       -3.3022279992        1.1483791976
 H         -0.5634572062       -3.8000850440        0.6391468919
 H          1.4028699110       -2.0926081266       -1.5388047073
 C          1.8655581393       -3.3864203686        0.1010013020
 C          1.6860091699       -4.6602276671       -0.6679598757
 C          3.0377338336       -4.0193111889       -0.5851002847
 H          3.7981183594       -4.4894214139        0.0201990193
 H          3.4245449014       -3.5225515646       -1.4631652757
 H          1.5207098202       -5.5750582892       -0.1191441738
 H          1.1573268145       -4.6067358089       -1.6077512594
 H          1.8358845054       -3.4299557581        1.1839540153
