  62
        -98.93747080
 C          2.1909638769        0.8204795009       -0.1058542202
 C          2.9201448495        0.1267889233        0.8866379011
 C          3.7075845810       -1.0312469554        0.4316680330
 C          3.6708863648       -1.3834897974       -0.8651627827
 C          4.3521005023       -2.5475698389       -1.5406651131
 C          5.8073531918       -2.8416356870       -1.1513888486
 C          6.6454377374       -1.6066979105       -0.7899381809
 H          7.5746476481       -1.6288233899       -1.3622083020
 H          6.1119512554       -0.6967988254       -1.0700023070
 C          7.0109016866       -1.5471401346        0.6951903091
 H          7.3087975979       -2.5454967743        1.0229875038
 H          7.8761703300       -0.8913662830        0.8181026568
 C          5.9131526310       -1.0241568287        1.6208456960
 H          5.7659216145        0.0462683162        1.4530874858
 H          6.2571862687       -1.1417757871        2.6513204952
 C          4.5442910541       -1.7096178902        1.4781419571
 H          4.6543423787       -2.7731727140        1.2802332871
 H          4.0062980348       -1.5852849748        2.4222321779
 H          5.8275146976       -3.5404222616       -0.3162094320
 H          6.2624204373       -3.3546751035       -2.0002849450
 H          3.7475921521       -3.4425955224       -1.3665165506
 H          4.2967784795       -2.3258145570       -2.6090713825
 O          2.9296034671       -0.7018514361       -1.7840657727
 C          2.1796976302        0.4115121466       -1.4385841013
 O          1.5623714748        0.9301113376       -2.3867176631
 O          2.9024074984        0.4499596095        2.1059575537
 C          1.3684720887        2.0317353322        0.2914772578
 C         -0.0894267986        1.8055743718       -0.0269640704
 C         -0.8934722864        2.7552622517       -0.6426841340
 C         -2.2279184388        2.4863835128       -0.8951137257
 C         -2.7892154156        1.2744085192       -0.5393686435
 C         -1.9985044456        0.3222644271        0.0912794827
 C         -0.6641807719        0.5965881603        0.3469252423
 H         -0.0496197070       -0.1466932278        0.8412876403
 N         -2.5577022451       -0.9172344711        0.4508915872
 S         -3.9724008778       -0.9130049102        1.3569778687
 O         -4.0712856391        0.2731236670        2.1757193291
 O         -3.9762821733       -2.1795104042        2.0563480153
 C         -5.2659400466       -0.9214343740        0.1339966977
 C         -6.2196545580        0.0775334539        0.1324341892
 C         -7.2208595069        0.0460909716       -0.8258911249
 C         -7.2507872249       -0.9785986163       -1.7593519470
 C         -6.2870778772       -1.9760521872       -1.7421265043
 C         -5.2839942359       -1.9509158550       -0.7864803109
 H         -4.5187809334       -2.7076053131       -0.7364772793
 H         -6.3135536832       -2.7712970935       -2.4696156033
 H         -8.0298387296       -1.0005540964       -2.5049177516
 H         -7.9711962100        0.8201277360       -0.8408873452
 H         -6.1529616921        0.8566403933        0.8749859560
 H         -1.8891044950       -1.5626838735        0.8458455172
 H         -3.8253967556        1.0591909868       -0.7425709151
 H         -2.8385886491        3.2313521309       -1.3818301694
 H         -0.4748837202        3.7055230276       -0.9302982233
 H          1.4673367041        2.1067141749        1.3853602090
 C          1.9410750387        3.2859015505       -0.3351051435
 C          1.7954375386        4.6099938838        0.3516482932
 C          3.1313590134        3.9332093184        0.3048655549
 H          3.8994561049        4.3457362424       -0.3319557350
 H          3.5110030874        3.4849359369        1.2117143807
 H          1.6484935489        5.4917059054       -0.2536322976
 H          1.2704213627        4.6289602292        1.2948076080
 H          1.9070243529        3.2611553849       -1.4185282740
