  62
        -98.93369060
 C         -2.4469477603       -1.1601046093       -0.0496717698
 C         -2.4138055503        0.2335049008        0.1888876995
 C         -3.6986217202        0.8625402810        0.5437124792
 C         -4.8040253503        0.1034254610        0.6355723195
 C         -6.2019242203        0.5247844413        1.0141697093
 C         -6.7387195002        1.8262687510        0.4018107486
 C         -6.2210591102        2.1440602903       -1.0085937815
 H         -5.7086138202        1.2753174801       -1.4253871611
 H         -7.0710482402        2.3632219200       -1.6573995216
 C         -5.2829816201        3.3531459402       -1.0414716521
 H         -5.2505829801        3.7454802797       -2.0607531823
 H         -5.6981805301        4.1360732606       -0.4031933625
 C         -3.8403614302        3.0775374404       -0.6183621919
 H         -3.3144354601        4.0342175804       -0.5684331724
 H         -3.3367564902        2.4776987700       -1.3816525616
 C         -3.6707866902        2.3526101511        0.7268102384
 H         -4.4118647502        2.6844607814        1.4500334583
 H         -2.6750118402        2.5896888812        1.1121834484
 H         -6.5056424902        2.6617605613        1.0603858782
 H         -7.8261184602        1.7384285610        0.3784920786
 H         -6.8395769803       -0.3106122289        0.7157173997
 H         -6.2523954403        0.5952948418        2.1044654492
 O         -4.7842747703       -1.2416347391        0.4130485602
 C         -3.6206874403       -1.9029829893        0.0625596805
 O         -3.7575320103       -3.1307286493       -0.1124154089
 O         -1.3627536902        0.9239034207        0.1188775692
 C         -1.1787728403       -1.8924165596       -0.4487296194
 C         -0.1029395403       -1.6683106691        0.5856598705
 C         -0.3984736203       -1.9221692884        1.9229416806
 C          0.5511524996       -1.7225548380        2.9052209205
 C          1.8134464897       -1.2609577482        2.5752280804
 C          2.1241276997       -1.0182022788        1.2429592302
 C          1.1712314597       -1.2346262793        0.2562080503
 H          1.4348117897       -1.0337077498       -0.7676817998
 N          3.4199407297       -0.5974771790        0.8845585101
 S          3.6292580598        0.6220914504       -0.2653146805
 O          3.0035240998        1.8488239106        0.1773356989
 O          3.2403901198        0.1284017098       -1.5610184703
 C          5.4047126998        0.7858861504       -0.2012993506
 C          5.9736591598        1.8697853907        0.4391213989
 C          7.3555063698        1.9677125207        0.4928240389
 C          8.1401304498        0.9835567004       -0.0886837606
 C          7.5543843298       -0.0991141499       -0.7282670101
 C          6.1739010998       -0.2015594799       -0.7873792601
 H          5.6746618298       -1.0187069801       -1.2810063197
 H          8.1678589098       -0.8611904702       -1.1809711697
 H          9.2149764798        1.0619720604       -0.0455632606
 H          7.8135074698        2.8095371509        0.9866392785
 H          5.3234728598        2.6136553309        0.8709764785
 H          3.9786648297       -0.3781992186        1.6997481500
 H          2.5522607196       -1.0921766278        3.3443937303
 H          0.3053933996       -1.9179365575        3.9384324806
 H         -1.3904230504       -2.2697894483        2.1802068608
 H         -1.4339543803       -2.9626564796       -0.4518793689
 C         -0.7658730702       -1.4880521503       -1.8485008196
 C         -0.0030972902       -2.4429131107       -2.7149141391
 C         -1.4373601602       -2.1349712708       -3.0209290593
 H         -1.6638533402       -1.5281409312       -3.8848617896
 H         -2.1807080803       -2.8901685107       -2.8093952090
 H          0.7614772698       -2.0453183610       -3.3653902493
 H          0.2288232797       -3.4131712805       -2.3023320186
 H         -0.5318567702       -0.4314302403       -1.9269653501
