  62
        -98.94626283
 C         -2.3869204259       -0.5366154441       -0.0111941173
 C         -1.3919130963       -0.7305139586        0.9744200360
 C         -0.6958637741       -2.0226328032        0.9488230740
 C         -1.0304292504       -2.9275229743        0.0113677283
 C         -0.3187332501       -4.2275805533       -0.2316522048
 C          0.9848684992       -3.9581614685       -1.0122672836
 C          2.2638555487       -4.2846579707       -0.2401964232
 H          3.0964069930       -3.8579272466       -0.8042432913
 H          2.3989049661       -5.3685732535       -0.2164211316
 C          2.3226630001       -3.7697565086        1.2012777689
 H          3.3663998972       -3.8265749941        1.5173025518
 H          1.7614315090       -4.4417129482        1.8527502882
 C          1.8189016407       -2.3368546779        1.4176722942
 H          1.8800180789       -1.7651140395        0.4905280894
 H          2.4770080344       -1.8463204286        2.1384216227
 C          0.3836683723       -2.2440003795        1.9712138516
 H          0.3212863840       -1.3812681874        2.6405265160
 H          0.1563207155       -3.1375491984        2.5590465546
 H          0.9989613791       -2.9061707368       -1.3089596361
 H          0.9840648365       -4.5416417482       -1.9349005849
 H         -0.1053419212       -4.7177000120        0.7157387483
 H         -0.9856972085       -4.8638109527       -0.8141742786
 O         -2.0183284563       -2.7206422147       -0.8980849925
 C         -2.6969067149       -1.5140316045       -0.9535206022
 O         -3.5426263386       -1.4365589568       -1.8697335498
 H         -0.8750623900        0.6717207736       -1.6319445772
 C         -0.9241957871        1.6133113273       -1.1044520916
 C         -2.0070902660        1.8836401731       -0.2771431444
 C         -2.0529071670        3.1114809853        0.3709081201
 C         -1.0219095481        4.0231958034        0.2185150274
 C          0.0832218303        3.7227333821       -0.5568951848
 C          0.1316255334        2.5018524838       -1.2201427368
 N          1.2395373614        2.1341292862       -2.0112978930
 S          2.0988282584        0.7621359698       -1.5763952494
 O          3.1723354805        0.6753954868       -2.5435980170
 O          1.2181319478       -0.3749091409       -1.5040116282
 C          2.7883596967        1.1451055417        0.0242997907
 C          1.9669582319        1.1649014248        1.1335953711
 C          2.5135376515        1.5164983876        2.3587049082
 C          3.8577027389        1.8404047405        2.4549036166
 C          4.6680433939        1.8168345605        1.3295879677
 C          4.1291654333        1.4709351431        0.1013413519
 H          4.7189784501        1.4363061254       -0.8004168164
 H          5.7139905307        2.0671906950        1.4048762864
 H          4.2748225842        2.1113335014        3.4120217965
 H          1.8748985972        1.5313547228        3.2274499548
 H          0.9246993183        0.9008296823        1.0467722071
 H          1.8912684598        2.8894338143       -2.1748963875
 H          0.9012433916        4.4212453079       -0.6493591258
 H         -1.0700204256        4.9725784512        0.7295795951
 H         -2.8920679350        3.3509615429        1.0034198213
 C         -3.0661784976        0.8165823726       -0.1265481429
 H         -3.6630692541        0.7835443513       -1.0500640974
 C         -3.9925125291        1.0513154186        1.0487090192
 C         -5.2277501390        1.8839607144        0.8856495098
 C         -5.3408327594        0.3984175360        1.0453987642
 H         -5.7258975216        0.0045224599        1.9738882150
 H         -5.5996356496       -0.1943203730        0.1797514233
 H         -5.4244002348        2.3028519803       -0.0897447691
 H         -5.5405466580        2.5099022782        1.7077580857
 H         -3.4611720665        1.0978287890        1.9922392326
 O         -1.0871898244        0.1467314279        1.8265415021
