  62
        -98.93570225
 C         -2.2013435801       -1.2174104605       -0.1188131902
 C         -2.9697514399       -0.5297039306        0.8460599300
 C         -3.8419282902        0.5523260393        0.3524000802
 C         -3.8261841806        0.8542319093       -0.9586744398
 C         -4.6196826209        1.9030798593       -1.6963459395
 C         -4.7224530609        3.2850960192       -1.0326580495
 C         -6.1204427908        3.6007012691       -0.4979685591
 H         -6.2380330109        4.6853856291       -0.4460514891
 H         -6.8577260409        3.2270118590       -1.2114201289
 C         -6.4282693203        3.0367128490        0.8880598009
 H         -7.4883900603        3.2097493989        1.0873957612
 H         -5.8622531902        3.5929408191        1.6385863008
 C         -6.1328358601        1.5463349491        1.0684853608
 H         -6.7431115999        1.1832325690        1.8981946510
 H         -6.4342327003        0.9868871790        0.1837083709
 C         -4.6642418500        1.2462972792        1.4041572305
 H         -4.1537472500        2.1674940993        1.7009823403
 H         -4.6142427497        0.5843139892        2.2745268104
 H         -3.9840275207        3.3706711593       -0.2367911897
 H         -4.4732746212        4.0348460893       -1.7853298896
 H         -5.6207457909        1.5085768691       -1.8871236393
 H         -4.1308661412        1.9938803193       -2.6689536997
 O         -3.0448666207        0.1804574194       -1.8507620100
 C         -2.2212503905       -0.8640910805       -1.4673984802
 O         -1.5728696407       -1.3770670304       -2.3973993504
 O         -2.9296425496       -0.8047198906        2.0776291000
 C         -1.2965641799       -2.3515024304        0.3257860095
 C          0.1437790800       -2.0215094102        0.0174468892
 C          1.0204539700       -2.9100611801       -0.5901055011
 C          2.3321966999       -2.5417404099       -0.8364313214
 C          2.7984833698       -1.2896440499       -0.4823199915
 C          1.9349650499       -0.3979391800        0.1412314687
 C          0.6234814500       -0.7713070701        0.3899465490
 H         -0.0485264300       -0.0755102902        0.8785202792
 N          2.3951791998        0.8813596901        0.4990740686
 S          3.8232421000        1.0008402402        1.3748582682
 O          4.0517966004       -0.1787262597        2.1767246781
 O          3.7233570301        2.2549865502        2.0891938382
 C          5.0817262397        1.1450363204        0.1240542479
 C          6.1218195198        0.2373716105        0.0830772976
 C          7.0927045695        0.3751482306       -0.8968420927
 C          7.0069711991        1.4127431106       -1.8123816626
 C          5.9574915290        2.3178708105       -1.7554897724
 C          4.9842066193        2.1861932904       -0.7780926821
 H          4.1552684293        2.8694885203       -0.6968152819
 H          5.8943067688        3.1238735805       -2.4687457023
 H          7.7628116489        1.5175150207       -2.5746330628
 H          7.9097888496       -0.3267251293       -0.9425170929
 H          6.1449464001       -0.5557217895        0.8134210076
 H          1.6813353098        1.4701543900        0.9029306488
 H          3.8167723697       -0.9977145798       -0.6800430818
 H          3.0003010798       -3.2401813198       -1.3166258116
 H          0.6762938900       -3.8899962601       -0.8764654910
 H         -1.4045771896       -2.4000661704        1.4200679696
 C         -1.7622581099       -3.6643538204       -0.2674424903
 C         -1.5100921295       -4.9518653704        0.4569703096
 C         -2.8974501096       -4.3902977306        0.3879653000
 H         -3.6253409097       -4.8829311706       -0.2389637498
 H         -3.3177519494       -3.9498699406        1.2805120101
 H         -1.2871769996       -5.8349518604       -0.1225281605
 H         -0.9892835093       -4.9002639203        1.4012466995
 H         -1.7257093702       -3.6671585204       -1.3509138903
