  62
        -98.94385735
 C         -1.9688120671       -1.3428596631        0.0870224675
 C         -1.9178282449       -0.1155075664       -0.6173596339
 C         -3.2137449941        0.5325744663       -0.8559178414
 C         -4.3467768947       -0.0564851762       -0.4327570308
 C         -5.7419957911        0.4772004967       -0.6131703209
 C         -6.1608193838        1.4982208679        0.4537669968
 C         -5.4969964922        2.8712989216        0.3388732042
 H         -5.6205335615        3.2497050747       -0.6763239960
 H         -6.0389578412        3.5453579221        1.0052963592
 C         -4.0100759138        2.8912402587        0.7206426089
 H         -3.8129691045        3.7437296118        1.3746910423
 H         -3.7679652808        1.9906778411        1.2899913148
 C         -3.0520139519        2.9990800861       -0.4657450468
 H         -2.0285210876        2.9626039147       -0.0832308858
 H         -3.1917305323        3.9618363092       -0.9624271788
 C         -3.2112765987        1.8829698887       -1.5062013805
 H         -2.3572321873        1.9243565637       -2.1862437201
 H         -4.1243013809        2.0323400684       -2.0818953518
 H         -5.9562465948        1.0763080595        1.4406684388
 H         -7.2415850308        1.6332819132        0.3688050675
 H         -5.8400035089        0.9228776221       -1.6033904528
 H         -6.4143484485       -0.3811587763       -0.5499852339
 O         -4.3537542762       -1.2521154254        0.2157225547
 C         -3.1698874388       -1.9110716894        0.5093919508
 O         -3.3168817919       -2.9780790606        1.1405644852
 O         -0.8529668591        0.4128717642       -1.0242834217
 C         -0.6843528568       -2.0839448607        0.4051578471
 C          0.2638941008       -1.2100287054        1.1910603304
 C         -0.2355713705       -0.3383848386        2.1544120056
 C          0.6088615239        0.4815070636        2.8787459108
 C          1.9767307059        0.4398768673        2.6725448108
 C          2.4887872333       -0.4404262877        1.7304311397
 C          1.6369659028       -1.2587063307        0.9976560978
 H          2.0541516472       -1.9334055110        0.2657987710
 N          3.8862550716       -0.4853938291        1.5271200070
 S          4.5815574368        0.8431263780        0.7767154893
 O          5.9994819109        0.5684877261        0.7252642014
 O          4.1828888514        2.0349088387        1.4791771961
 C          3.9064688328        0.8250757829       -0.8738670790
 C          4.6946401048        0.3843296595       -1.9193306298
 C          4.1394746109        0.2961294924       -3.1854619070
 C          2.8063344021        0.6272373827       -3.3792906886
 C          2.0267228498        1.0620582571       -2.3186128119
 C          2.5812530905        1.1680420298       -1.0529976217
 H          1.9909702636        1.5030762159       -0.2156685527
 H          0.9813007413        1.2915108385       -2.4474201170
 H          2.3696780285        0.5441429647       -4.3624286809
 H          4.7426751804       -0.0387246948       -4.0141897869
 H          5.7224046771        0.1267423114       -1.7197455765
 H          4.1932483469       -1.3236281839        1.0521734773
 H          2.6486311691        1.0858071636        3.2132776148
 H          0.1990379791        1.1592803618        3.6126904875
 H         -1.3035044995       -0.3024486703        2.3231323987
 H         -0.9722085813       -2.9334198357        1.0425395642
 C         -0.0719784937       -2.6188761404       -0.8749061485
 C          0.6727938366       -3.9194208041       -0.8805907623
 C         -0.6821976938       -3.8285610887       -1.5140226377
 H         -0.7546644839       -3.8637468235       -2.5905183576
 H         -1.5181932974       -4.2869212821       -1.0053682108
 H          1.5314665092       -4.0200166192       -1.5277678301
 H          0.7569869977       -4.4547716513        0.0533996458
 H          0.2738513964       -1.8267970784       -1.5296403357
