  62
        -98.93584442
 C         -1.3178475160       -1.5869910002       -0.3832632817
 C         -1.5097725479       -0.2454826766       -0.7961202571
 C         -2.6642299453        0.4555018005       -0.2036558299
 C         -3.4255771299       -0.1728748347        0.7081011015
 C         -4.6548932909        0.3904201608        1.3632572287
 C         -5.8500474174        0.3378154166        0.3904505900
 C         -6.3765271460        1.7085546182       -0.0351001880
 H         -6.9545877430        2.1372270567        0.7862036034
 H         -7.0594712218        1.5516629544       -0.8726892754
 C         -5.3130788349        2.7322290458       -0.4436327032
 H         -4.8619807074        3.1702325235        0.4481819799
 H         -5.8324989730        3.5425521305       -0.9596981301
 C         -4.1929047032        2.2073384909       -1.3506987364
 H         -3.9654970249        2.9785839300       -2.0894193300
 H         -4.5251636440        1.3269620370       -1.9012415836
 C         -2.8749245670        1.8844626075       -0.6224308732
 H         -2.7622911010        2.5360721098        0.2493228746
 H         -2.0411205183        2.1037053763       -1.2963469931
 H         -6.6697021989       -0.2151660154        0.8516454964
 H         -5.5467398805       -0.2280458786       -0.4927738936
 H         -4.4618539890        1.4127318899        1.6818611666
 H         -4.8562895161       -0.2163264952        2.2466088975
 O         -3.1988192441       -1.4554831280        1.0967790253
 C         -2.1458868346       -2.1831852293        0.5705862933
 O         -2.0535596532       -3.3447858716        1.0183024134
 O         -0.7716978963        0.3574920832       -1.6163206419
 C         -0.1684927680       -2.4597181916       -0.8612727519
 C          1.0080119180       -2.3544221727        0.0788823710
 C          1.7746280443       -3.4709648822        0.3931250529
 C          2.8523791518       -3.3614063347        1.2539004569
 C          3.1791541231       -2.1445361071        1.8236833227
 C          2.4058789660       -1.0244006323        1.5327772010
 C          1.3387004791       -1.1359731023        0.6533535603
 H          0.7391865753       -0.2662565333        0.4441193165
 N          2.6799286497        0.1987326138        2.1479947244
 S          2.1760574468        1.6879723900        1.5958192056
 O          2.8257409473        2.6148181784        2.4994465856
 O          0.7374877974        1.7536512285        1.5502316066
 C          2.9026618282        1.8663584822       -0.0228031664
 C          4.2605991126        2.1252404444       -0.0681490270
 C          4.8804470406        2.2629241101       -1.2980219880
 C          4.1340723116        2.1427831339       -2.4613413177
 C          2.7744008251        1.8865769952       -2.3980294293
 C          2.1462948332        1.7420783448       -1.1691538515
 H          1.0906481047        1.5271859999       -1.1078492840
 H          2.1870265311        1.7925751211       -3.2972003270
 H          4.6136997038        2.2514739201       -3.4213030929
 H          5.9383222611        2.4647918506       -1.3473673951
 H          4.7985766543        2.2334277109        0.8595527112
 H          3.5259501461        0.2438437253        2.6935547233
 H          4.0115053062       -2.0617623175        2.5053613550
 H          3.4410082899       -4.2346982529        1.4903802865
 H          1.5078556098       -4.4317826828       -0.0217470964
 H         -0.5419443151       -3.4949728822       -0.7973847322
 C          0.2201524145       -2.2053534465       -2.3114227022
 C          1.4767534202       -1.4977030157       -2.7094495861
 C          1.3450410781       -2.9705719722       -2.9438774339
 H          1.2182434032       -3.3247682641       -3.9556660943
 H          1.9214468774       -3.6295608455       -2.3135046796
 H          1.4262047754       -0.8282107964       -3.5535180700
 H          2.1376062076       -1.1585165217       -1.9264495475
 H         -0.6504138039       -2.0234447223       -2.9326869493
