  62
        -98.94495863
 C         -2.4378951705       -1.1764886185       -0.0697885096
 C         -3.1616216401       -0.4626401283        0.9228621305
 C         -3.8208946794        0.7722883821        0.4896842208
 C         -3.7306394693        1.1575622023       -0.7957280691
 C         -4.3594663686        2.3827406228       -1.4011836689
 C         -3.5311370679        3.6614778723       -1.2150858687
 C         -3.5239090976        4.2299321320        0.2045519414
 H         -3.0982423370        5.2335024318        0.1444019216
 H         -4.5500127875        4.3311458225        0.5595221415
 C         -2.7067474880        3.4085835414        1.2118811813
 H         -2.0291525784        2.7394586511        0.6747237411
 H         -2.0810767676        4.0795222409        1.8050325814
 C         -3.5462139784        2.5882135916        2.1919019211
 H         -4.1204887880        3.2608312618        2.8327677913
 H         -2.8654096287        2.0152052312        2.8264315510
 C         -4.5154954489        1.6029206223        1.5259728810
 H         -4.8970592293        0.9258212823        2.2939205509
 H         -5.3537533687        2.1402250328        1.0832796011
 H         -2.5041464680        3.4625997818       -1.5323064887
 H         -3.9450364975        4.4185581526       -1.8853089585
 H         -4.4553346487        2.1870930530       -2.4713849289
 H         -5.3558184685        2.5286291032       -0.9829845688
 O         -3.0482588897        0.4376842721       -1.7230318893
 C         -2.3607846903       -0.7195732383       -1.3851274695
 O         -1.7512045806       -1.2258620285       -2.3507071296
 O         -3.2568902403       -0.8492773985        2.1176003105
 C         -1.7113388012       -2.4297297790        0.3943083001
 C         -0.2625505610       -2.0975897398        0.6602766802
 C          0.2416210191       -2.0797720104        1.9554439401
 C          1.5540886693       -1.7124450311        2.1967780502
 C          2.3851102795       -1.3424689414        1.1542054602
 C          1.8868241294       -1.3488287109       -0.1416983198
 C          0.5802741192       -1.7411341601       -0.3834646298
 H          0.1972083292       -1.7249193397       -1.3933511898
 N          2.7166489396       -0.9209630511       -1.2057955797
 S          3.0326136505        0.7361388487       -1.1842535894
 O          1.9392841309        1.4737715292       -0.5895047692
 O          3.3797875607        1.0858097388       -2.5446375893
 C          4.4842086806        0.8642609077       -0.1613344094
 C          5.6490981403        0.2723077672       -0.6096687295
 C          6.7867630703        0.3548625764        0.1771377704
 C          6.7406659907        1.0250624562        1.3908007706
 C          5.5641722511        1.6166477368        1.8249291307
 C          4.4221220110        1.5372381076        1.0429456407
 H          3.4832097312        1.9761081780        1.3406203808
 H          5.5300710814        2.1377383966        2.7681963508
 H          7.6271308308        1.0875484556        2.0020026006
 H          7.7036719401       -0.1028892940       -0.1573018597
 H          5.6402595500       -0.2329033726       -1.5609727696
 H          2.3254783595       -1.1562192907       -2.1088031297
 H          3.4052695596       -1.0450792820        1.3347943603
 H          1.9314747193       -1.7057056215        3.2078441602
 H         -0.4118431910       -2.3351953402        2.7769123601
 H         -2.1768081613       -2.6904193189        1.3543129501
 C         -1.8573472718       -3.6089887788       -0.5453007701
 C         -1.6067118126       -4.9887075490       -0.0171498004
 C         -3.0013089723       -4.5576131682       -0.3560971102
 H         -3.4742041326       -4.9732519777       -1.2331366703
 H         -3.6860250522       -4.3587840180        0.4554114098
 H         -1.1188905530       -5.7047873491       -0.6602808505
 H         -1.3457154126       -5.0836040893        1.0259232796
 H         -1.5558357617       -3.3946876987       -1.5621619701
