  62
        -98.94410566
 C          2.4181155904        1.0910372506        0.2196388598
 C          2.4630533806       -0.2516575296       -0.2266337897
 C          3.5637693508       -1.0662651792        0.3097097506
 C          4.4223528707       -0.5206242787        1.1903711403
 C          5.6177906109       -1.2183680682        1.7701987605
 C          6.8685569108       -0.9816925883        0.9120236904
 C          6.6519266208       -1.2385080589       -0.5792346895
 H          5.9488939006       -0.4993523992       -0.9699549098
 H          7.6074189107       -1.0697058789       -1.0804662096
 C          6.1415933210       -2.6472539491       -0.9131449990
 H          6.7096452611       -3.0337904693       -1.7619552589
 H          6.3221855312       -3.3163784588       -0.0711423288
 C          4.6631841510       -2.7111109195       -1.3017441689
 H          4.4640300212       -3.7005005297       -1.7223085185
 H          4.4578755408       -1.9763672999       -2.0844563991
 C          3.6626001010       -2.4904375593       -0.1599301589
 H          2.6675666711       -2.7525899596       -0.5324376088
 H          3.9014749812       -3.1557153490        0.6724179013
 H          7.1832807906        0.0567290318        1.0381700000
 H          7.6677144709       -1.6265626480        1.2818064806
 H          5.7947446209       -0.8219567578        2.7714034504
 H          5.4100116011       -2.2840663383        1.8435269309
 O          4.3243511405        0.7623784215        1.6222476999
 C          3.3285921903        1.5988021111        1.1476406696
 O          3.3558205301        2.7521882213        1.6217300992
 H         -0.7647600497        1.0424511893       -1.7836432100
 C         -0.9614563697        1.0297637396       -0.7234166700
 C         -0.0090787697        1.5027567401        0.1627804898
 C         -0.2855451996        1.4542883406        1.5273287598
 C         -1.4850102695        0.9471099005        1.9864363101
 C         -2.4355243895        0.4743929900        1.0969317703
 C         -2.1646841895        0.5060139296       -0.2632183397
 N         -3.1219197495        0.0434969691       -1.1780517295
 S         -4.0226630592       -1.3262713910       -0.8351046990
 O         -3.2910818790       -2.2726942306       -0.0256891387
 O         -4.4795672692       -1.8004497615       -2.1234688188
 C         -5.4182765893       -0.6926865309        0.0738417009
 C         -6.1090691695        0.3817746588       -0.4515988695
 C         -7.2034054796        0.8765853288        0.2395034704
 C         -7.5896624594        0.2899220892        1.4354344106
 C         -6.8888619092       -0.7910158905        1.9475807210
 C         -5.7921889391       -1.2897518906        1.2617166811
 H         -5.2135041590       -2.1240539003        1.6256813714
 H         -7.1904120191       -1.2465847702        2.8771365411
 H         -8.4415008895        0.6773544992        1.9717229905
 H         -7.7505763098        1.7174529386       -0.1553705199
 H         -5.7791868696        0.8087413585       -1.3837781097
 H         -2.8082085595        0.0457465388       -2.1375940395
 H         -3.3682031894        0.0665434800        1.4502482905
 H         -1.6851902895        0.9169287108        3.0468318201
 H          0.4619732403        1.8143922410        2.2214828497
 C          1.3335966502        2.0316404602       -0.2792296604
 H          1.5057019700        2.9886833304        0.2324590692
 C          1.4557220201        2.2487392597       -1.7724079305
 C          0.8238897398        3.4519398493       -2.4035535809
 C          2.3146573098        3.3675731297       -2.2765968310
 H          2.9010840098        3.2048050295       -3.1685466509
 H          2.8035846098        3.9897941400       -1.5411763712
 H          0.3870526898        3.3514824489       -3.3856412609
 H          0.2983042797        4.1357248695       -1.7545642612
 H          1.4686896702        1.3223625495       -2.3348598002
 O          1.6352604707       -0.7479370100       -1.0361355495
