  62
        -98.93887087
 C         -1.9856636980       -1.3499504620        0.0083255368
 C         -2.5929893884       -0.7365744476        1.1273184398
 C         -3.8086917661        0.0528338264        0.8648778843
 C         -4.2561567039        0.1594937412       -0.3985294484
 C         -5.4363428349        0.9539465771       -0.8855986588
 C         -4.9959563314        2.3523422579       -1.3507238902
 C         -4.9444502118        3.4116121694       -0.2501554996
 H         -4.4923159003        4.3073915218       -0.6823892232
 H         -5.9629065572        3.6701278917        0.0472004087
 C         -4.1554089066        3.0181885970        1.0015325621
 H         -3.2291317745        2.5193193739        0.7096047989
 H         -3.8763418416        3.9360160060        1.5230870729
 C         -4.9533389661        2.1236327640        1.9621607505
 H         -6.0023616695        2.1333682797        1.6670558173
 H         -4.9111147451        2.5467895941        2.9679585439
 C         -4.4610983241        0.6723674038        2.0707767924
 H         -3.7057145153        0.6030428809        2.8599705689
 H         -5.2959358640        0.0355620815        2.3816297691
 H         -4.0113692705        2.2560124935       -1.8161505421
 H         -5.6874051630        2.6996494482       -2.1210657576
 H         -5.8411879785        0.4144099867       -1.7443145547
 H         -6.2023390612        1.0174153489       -0.1184558532
 O         -3.6263925544       -0.4281081740       -1.4525025503
 C         -2.4796425669       -1.1865820883       -1.2858661960
 O         -2.0105735529       -1.6490546907       -2.3418723316
 O         -2.1318519675       -0.8334576875        2.2979494267
 C         -0.7312400334       -2.1801004118        0.2155919226
 C          0.4287966579       -1.5348693845       -0.5021187612
 C          1.2496997620       -2.2033416861       -1.3995676459
 C          2.2847577253       -1.5359814051       -2.0332406212
 C          2.5313655376       -0.2003367571       -1.7781842808
 C          1.7303365880        0.4721946059       -0.8626263426
 C          0.6944054357       -0.1972380783       -0.2309256163
 H          0.0680570534        0.3286121269        0.4791822980
 N          1.9883200499        1.8233286420       -0.5763190203
 S          3.5804026563        2.2812273181       -0.3358962051
 O          3.5151613676        3.4295887425        0.5406296034
 O          4.2199609948        2.4986899910       -1.6095843636
 C          4.3440335902        0.8987544168        0.4945535527
 C          5.3915837518        0.2278286784       -0.1025797368
 C          5.9429196913       -0.8662459351        0.5450096746
 C          5.4367326535       -1.2704783955        1.7703092209
 C          4.3868160837       -0.5828327680        2.3599480690
 C          3.8330386266        0.5125922321        1.7179720555
 H          3.0184525042        1.0701517648        2.1523711372
 H          3.9942890180       -0.8976607801        3.3136152236
 H          5.8620163625       -2.1259491023        2.2708253436
 H          6.7606532046       -1.4014665801        0.0901314549
 H          5.7520194917        0.5740348969       -1.0574935779
 H          1.3812734811        2.2184746944        0.1262277235
 H          3.3209703910        0.3362938673       -2.2785205313
 H          2.9061649807       -2.0639992784       -2.7400645100
 H          1.0726681852       -3.2437915174       -1.6147906419
 H         -0.5291489755       -2.1348455076        1.2959363373
 C         -0.9699799160       -3.6226720997       -0.1743055412
 C         -0.1620003194       -4.7145024540        0.4590683665
 C         -1.6061799649       -4.5451118013        0.8205273034
 H         -2.3185790967       -5.2742027855        0.4646773261
 H         -1.8486640308       -4.1378604555        1.7913580888
 H          0.1173822565       -5.5653003984       -0.1435806415
 H          0.5794871926       -4.4274014049        1.1889086180
 H         -1.2596491917       -3.7326538354       -1.2130273840
