  62
        -98.94047153
 C          1.0846206623        1.5698909495        0.6204040671
 C          2.0569826041        1.4128654247       -0.3957938855
 C          3.0873813518        0.3839504730       -0.1636221487
 C          3.0432467932       -0.3643347767        0.9532020296
 C          3.9857758658       -1.4369800953        1.4561279159
 C          4.9012200179       -2.1853483208        0.4887632214
 C          4.1846565490       -3.0020083859       -0.5843532740
 H          4.9467966490       -3.4587418468       -1.2199033946
 H          3.6305372812       -3.8088287171       -0.0984272907
 C          3.2084329654       -2.2245540686       -1.4652122944
 H          2.8412022224       -2.9051236522       -2.2378286971
 H          2.3439313787       -1.9119550785       -0.8766618144
 C          3.7919524424       -0.9988429308       -2.1668104297
 H          3.0564898874       -0.6663493180       -2.9037272091
 H          4.7014024151       -1.2765166365       -2.7028073781
 C          4.1029981458        0.2030060779       -1.2540398559
 H          5.1029983810        0.1355659199       -0.8311453372
 H          4.0650067382        1.1095472151       -1.8644614239
 H          5.6054921318       -1.4998102809        0.0268004783
 H          5.4880705088       -2.8798530329        1.0964231678
 H          4.6109400407       -0.9583324109        2.2184836563
 H          3.3583363325       -2.1609346816        1.9850429851
 O          2.0728450353       -0.1889424593        1.8978998657
 C          1.0829253164        0.7664860589        1.7605156654
 O          0.2720341687        0.7998700207        2.7093543653
 H         -2.0665280661        0.9106142187        0.8600662754
 C         -1.9969591570        1.2237920664       -0.1709895658
 C         -1.0110958701        2.1289073023       -0.5466002500
 C         -0.9460688890        2.5366530317       -1.8732435167
 C         -1.8470798430        2.0403933366       -2.7987125288
 C         -2.8245589760        1.1371895195       -2.4236057114
 C         -2.9031853482        0.7277851935       -1.0960962794
 N         -3.9140681261       -0.1538159352       -0.6916742804
 S         -3.7458153285       -1.2218805832        0.5755426852
 O         -4.8721131919       -2.1175780834        0.4191591140
 O         -3.6733218934       -0.5105404302        1.8257279596
 C         -2.2415238543       -2.1273889474        0.2657825573
 C         -1.1275428098       -1.9303258659        1.0544366474
 C          0.0139301088       -2.6731267219        0.7943753672
 C          0.0258132936       -3.5884092199       -0.2456755072
 C         -1.1011984730       -3.7709070599       -1.0329860262
 C         -2.2462889689       -3.0366318449       -0.7751307983
 H         -3.1496238377       -3.1685906677       -1.3480790996
 H         -1.0894965101       -4.4849541446       -1.8404902858
 H          0.9169372459       -4.1638961508       -0.4408045160
 H          0.8858525438       -2.5236972248        1.4117484563
 H         -1.1575845685       -1.2089046604        1.8567938584
 H         -4.4767561223       -0.5343015891       -1.4375018082
 H         -3.5288762921        0.7559896416       -3.1469276893
 H         -1.7854806938        2.3603915859       -3.8277661184
 H         -0.1769777053        3.2242969563       -2.1823393556
 C         -0.0326552255        2.5953253848        0.5047121861
 H         -0.5529411044        2.5796214717        1.4725150029
 C          0.4963515731        3.9939168906        0.2635892296
 C         -0.4120299821        5.1644678427        0.4841997406
 C          0.7177357385        4.9025914294        1.4333774466
 H          1.5702964699        5.5649955311        1.4171797393
 H          0.4818139202        4.5203392177        2.4162945682
 H         -0.3376879073        6.0096413867       -0.1826713462
 H         -1.4163016127        4.9579260613        0.8232143853
 H          1.2112168519        4.0519331491       -0.5467785598
 O          2.0906368640        2.1016243942       -1.4474240452
