  62
        -98.94484605
 C          1.8840635341       -1.0418448579        0.2292577789
 C          3.0299895256       -1.1665369632       -0.6016567300
 C          4.2688233427       -0.5530599915       -0.1091990560
 C          4.2604104704        0.0745719001        1.0805473731
 C          5.4349362356        0.7865025098        1.6849364226
 C          5.4582746943        2.2670699776        1.2802075217
 C          5.2886184373        2.5007725011       -0.2210433915
 H          4.2846286240        2.1898541936       -0.5197016737
 H          5.3539892945        3.5776333437       -0.3915299277
 C          6.3233575021        1.7806168019       -1.0970127091
 H          7.1818511306        1.4876503539       -0.4915127951
 H          6.6850186708        2.4776996730       -1.8558217813
 C          5.7839159538        0.5558219168       -1.8381131376
 H          4.8677747660        0.8241658176       -2.3703840885
 H          6.5227163001        0.2595069503       -2.5874952289
 C          5.4946256066       -0.6749830878       -0.9697762075
 H          5.3064915576       -1.5178107250       -1.6411959679
 H          6.3702954623       -0.9093774380       -0.3609874157
 H          4.6466993236        2.7816397199        1.8000763130
 H          6.4030725931        2.7006550146        1.6131149583
 H          6.3527048170        0.2972766767        1.3642492455
 H          5.3575261577        0.7175557370        2.7713687260
 O          3.1514611198        0.1665358555        1.8541013794
 C          1.9383630645       -0.3758794084        1.4535039097
 O          1.0217741500       -0.1916584976        2.2804151168
 O          3.0157559138       -1.7746663870       -1.7047292144
 C          0.6035540356       -1.6802131266       -0.2837620819
 C         -0.3345049330       -0.6503323516       -0.8660239399
 C         -0.6256052408       -0.6386988795       -2.2250335986
 C         -1.5075202859        0.2897690609       -2.7512560799
 C         -2.1176131287        1.2232520842       -1.9330857788
 C         -1.8260626000        1.2238516774       -0.5751020768
 C         -0.9472331533        0.2893345889       -0.0486985667
 H         -0.7179060810        0.3027999396        1.0063426397
 N         -2.4568872007        2.1620638054        0.2698866399
 S         -4.1320132806        2.0764768818        0.2903945915
 O         -4.6528192095        2.7208195371       -0.8891571662
 O         -4.5404125798        2.6439453893        1.5556282357
 C         -4.4799473156        0.3281433873        0.2352142141
 C         -4.9031389460       -0.2524579890       -0.9429415502
 C         -5.0826517062       -1.6257598054       -0.9848379638
 C         -4.8332445365       -2.3901385267        0.1441080814
 C         -4.4120592610       -1.7908894427        1.3213381132
 C         -4.2275097184       -0.4190637631        1.3684502767
 H         -3.9022826543        0.0810028708        2.2670582011
 H         -4.2215532030       -2.3856418251        2.2005625978
 H         -4.9683613571       -3.4596855891        0.1073403908
 H         -5.4108227428       -2.0951364893       -1.8980969223
 H         -5.0865140932        0.3786663249       -1.7967688100
 H         -2.0991592881        2.1338732344        1.2146355245
 H         -2.8137345196        1.9498704108       -2.3201370167
 H         -1.7228813143        0.2859150819       -3.8087963876
 H         -0.1460931265       -1.3589217326       -2.8717679858
 H          0.9251835273       -2.3376708775       -1.1023616739
 C         -0.1081262186       -2.5234940397        0.7570874095
 C         -1.1027408485       -3.5469800680        0.3013594386
 C          0.2155268427       -3.9819097767        0.8662841038
 H          0.2367334437       -4.4319834177        1.8474859770
 H          0.9558391992       -4.3816829406        0.1886529478
 H         -1.9915946941       -3.6975737642        0.8934277132
 H         -1.2587913312       -3.6519094533       -0.7613112083
 H         -0.3158933357       -1.9915205580        1.6760000825
