  62
        -98.94689527
 C         -2.0309535705       -1.0948980372       -0.5233414932
 C         -1.4864017828        0.0372962497       -1.1754384350
 C         -2.2183505816        1.3007075120       -0.9974776217
 C         -3.3272337984        1.3268699568       -0.2385097817
 C         -4.1333542613        2.5542638636        0.0708938996
 C         -3.6507360871        3.2296377927        1.3617097686
 C         -2.1391009775        3.4534827812        1.4201698353
 H         -1.6268327778        2.4892883789        1.4755586668
 H         -1.9242800603        3.9780625256        2.3543036734
 C         -1.5668996774        4.2540752485        0.2421561073
 H         -0.8648615185        4.9936733576        0.6331536389
 H         -2.3666793608        4.7981794112       -0.2628930983
 C         -0.7997655725        3.4064133740       -0.7744116408
 H         -0.0859151919        2.7722100112       -0.2421359451
 H         -0.2286613090        4.0797946831       -1.4198891729
 C         -1.6634025985        2.5189872094       -1.6805705668
 H         -1.0275236552        2.1482702569       -2.4897576693
 H         -2.4668963134        3.1134689167       -2.1210402370
 H         -3.9352851740        2.6013866744        2.2091432678
 H         -4.1643853425        4.1879454800        1.4615278741
 H         -5.1761059994        2.2568778699        0.1962225793
 H         -4.0617261835        3.2495269551       -0.7632957288
 O         -3.8257630344        0.2216327280        0.3724239995
 C         -3.1868190821       -0.9999838459        0.2579744207
 O         -3.7465686980       -1.9262519620        0.8803666944
 O         -0.4477157898        0.0218796303       -1.8875727799
 C         -1.3956353510       -2.4779703695       -0.5530263481
 C         -0.3768755282       -2.5890240467        0.5573898672
 C         -0.5058016634       -3.5583596402        1.5443616184
 C          0.4019079403       -3.6236603863        2.5864944349
 C          1.4344900639       -2.7089646396        2.6743373664
 C          1.5730969995       -1.7336344960        1.6910780427
 C          0.6874744989       -1.7000223031        0.6247139168
 H          0.7996863668       -0.9456494172       -0.1352698591
 N          2.6099951304       -0.7952028552        1.7690618013
 S          2.4104803913        0.8099243482        1.3116475145
 O          3.1832647938        1.5560183317        2.2858696961
 O          1.0176870957        1.1646391937        1.2013772832
 C          3.2630634602        0.8926876771       -0.2493865145
 C          4.6449619581        0.9111420291       -0.2018960161
 C          5.3601187171        0.9493774002       -1.3865186326
 C          4.6845573410        0.9685536622       -2.5980266810
 C          3.2996242627        0.9520114947       -2.6284514284
 C          2.5762159361        0.9135360235       -1.4450228706
 H          1.4971856102        0.8880489356       -1.4533026075
 H          2.7682130901        0.9641004576       -3.5667673043
 H          5.2394292929        0.9970218316       -3.5226816579
 H          6.4379218648        0.9634938695       -1.3634024267
 H          5.1279946950        0.9090617828        0.7611492813
 H          3.1668872423       -0.8606167664        2.6084500351
 H          2.1275730015       -2.7407863351        3.5016715557
 H          0.2926441539       -4.3806690338        3.3484211284
 H         -1.3364989098       -4.2475642583        1.5033726393
 H         -2.2085508284       -3.1823284304       -0.3276019261
 C         -0.7908772318       -2.8612298872       -1.8884355418
 C         -0.6318235288       -4.3138379749       -2.2188023023
 C         -1.6601187733       -3.4902316819       -2.9333922430
 H         -1.4907965584       -3.2303003402       -3.9673124315
 H         -2.7007348640       -3.6483384672       -2.6887764203
 H          0.2472677713       -4.6236678022       -2.7624095043
 H         -0.9766243115       -5.0341811781       -1.4923482262
 H         -0.0221528185       -2.1802659512       -2.2267860994
