  62
        -98.93972919
 C         -2.4568635533       -0.2494427939        0.2788185369
 C         -3.6118077942       -0.0885751843        1.0804664979
 C         -4.7798304717        0.5011750526        0.4133789602
 C         -4.6820999417        0.8713727490       -0.8768160603
 C         -5.8067355397        1.4399406832       -1.6919260307
 C         -6.5846465430        0.3319169154       -2.4156654113
 C         -6.9919787203       -0.8300375361       -1.5096953433
 H         -6.0929533718       -1.3499940052       -1.1710318039
 H         -7.5601011480       -1.5348722028       -2.1206126860
 C         -7.8291262015       -0.4205338695       -0.2899280673
 H         -8.6639205708       -1.1171854436       -0.1881951370
 H         -8.2530672090        0.5718674465       -0.4474534810
 C         -7.0682145813       -0.4411742166        1.0370539967
 H         -6.5643335479       -1.4037377164        1.1555392652
 H         -7.7960299994       -0.3510250166        1.8478732949
 C         -6.0307501088        0.6723152400        1.2287988590
 H         -5.7109323950        0.6518941367        2.2748888471
 H         -6.4909952361        1.6424347432        1.0301905283
 H         -5.9574704120       -0.0631342122       -3.2181120375
 H         -7.4750635088        0.7738820628       -2.8664583330
 H         -5.3835038066        2.1189949510       -2.4340088488
 H         -6.4739440612        2.0004593934       -1.0399731422
 O         -3.5473673782        0.7246120645       -1.6072334834
 C         -2.4090949772        0.1554736808       -1.0551027986
 O         -1.4460901282        0.0679279638       -1.8396751877
 O         -3.6613195359       -0.4183551011        2.2965413985
 C         -1.2133574605       -0.8606437848        0.8987199077
 C         -0.0729170043        0.1255283400        0.8360815534
 C         -0.2672427113        1.4016129876        1.3594915115
 C          0.7431426121        2.3423511487        1.3240623283
 C          1.9713426489        2.0341899178        0.7651291573
 C          2.1800473312        0.7629695726        0.2501912666
 C          1.1644900005       -0.1860942095        0.2974555185
 H          1.3429473318       -1.1697931519       -0.1079069119
 N          3.4183463428        0.4439011970       -0.3337360237
 S          4.8167244067        0.9851090157        0.4422857236
 O          4.7322160139        0.7167223834        1.8607217666
 O          5.0442479268        2.3606013646        0.0758884881
 C          6.0480740758       -0.0548490682       -0.3175495320
 C          6.4463001113       -1.2121835137        0.3244188869
 C          7.3867762771       -2.0271047635       -0.2858970045
 C          7.9073631394       -1.6744653797       -1.5219707395
 C          7.4972903193       -0.5098181127       -2.1539993796
 C          6.5582418245        0.3102253613       -1.5489721893
 H          6.2164012379        1.2281751542       -1.9979041008
 H          7.9060704699       -0.2382713819       -3.1139047381
 H          8.6396064614       -2.3099960870       -1.9944747964
 H          7.7098742467       -2.9315413287        0.2039630773
 H          6.0220262175       -1.4419712453        1.2887063394
 H          3.4868584063       -0.5347909080       -0.5768505916
 H          2.7685560151        2.7591120357        0.7284898207
 H          0.5753028592        3.3279002477        1.7326894840
 H         -1.2273539675        1.6465641228        1.7936802343
 H         -1.4645988584       -1.0207004137        1.9578533941
 C         -0.9085793088       -2.2004040077        0.2630437852
 C         -0.1540812923       -3.2442380537        1.0298220080
 C         -1.6192590993       -3.4186797445        0.7685352271
 H         -1.9318358089       -4.1664727177        0.0552058853
 H         -2.3069810102       -3.2858225380        1.5909005977
 H          0.5379965429       -3.8782117050        0.4961598113
 H          0.1562578468       -2.9984819722        2.0342433401
 H         -0.7430435464       -2.1262167370       -0.8060150627
