  62
        -98.94473347
 C         -1.5089718769       -1.7659774211       -0.4691412965
 C         -1.5414598494       -0.5913131181       -1.2618360442
 C         -2.7508542807        0.2391210044       -1.1301352946
 C         -3.7260379800       -0.1319018745       -0.2832133376
 C         -4.9810440967        0.6469689152       -0.0175568355
 C         -4.8015167452        1.6146821673        1.1597914532
 C         -3.5492134077        2.4868973613        1.0637911319
 H         -3.5564709721        3.1624021994        1.9225603550
 H         -2.6573361678        1.8627838728        1.1623224375
 C         -3.4412226736        3.3068121090       -0.2291404546
 H         -4.4185083458        3.3774225458       -0.7096251738
 H         -3.1294713883        4.3214433779        0.0278637033
 C         -2.4152789166        2.7669602359       -1.2273010453
 H         -1.4708501364        2.5878594172       -0.7065838567
 H         -2.2350577246        3.5379039437       -1.9820290086
 C         -2.8206307175        1.4852930538       -1.9671803748
 H         -3.8188837221        1.6070202101       -2.3941252333
 H         -2.1114985050        1.3369266776       -2.7870150369
 H         -4.7416690296        1.0318123138        2.0819725188
 H         -5.6853460412        2.2531306865        1.2181202741
 H         -5.7777322246       -0.0591897338        0.2237025452
 H         -5.2566081482        1.1981138759       -0.9146713290
 O         -3.6599622168       -1.2627224540        0.4663244236
 C         -2.5518512247       -2.0896587118        0.4024756676
 O         -2.6150989489       -3.0860543209        1.1522652019
 O         -0.6294488038       -0.2378934617       -2.0515871912
 C         -0.3354324693       -2.7322080001       -0.4422641241
 C          0.6360411875       -2.3631268602        0.6524191411
 C          1.2600580873       -3.3423102436        1.4171183243
 C          2.1488237813       -2.9893593522        2.4172164893
 C          2.4233403254       -1.6598187963        2.6803951147
 C          1.7892476772       -0.6705786652        1.9342838871
 C          0.9151434525       -1.0310245137        0.9190840019
 H          0.4211118132       -0.2596351311        0.3533850091
 N          2.0028500026        0.6778576732        2.2260238962
 S          1.6903766023        1.9452541829        1.1897782127
 O          2.1910578561        3.0971577583        1.9104042701
 O          0.2950233309        1.9777683108        0.8367872219
 C          2.7310402674        1.6646030036       -0.2301346635
 C          2.2128508230        1.2269703781       -1.4307793338
 C          3.0818332933        1.0221060459       -2.4931814756
 C          4.4394943059        1.2483195117       -2.3387719418
 C          4.9440626445        1.6873356960       -1.1231878521
 C          4.0835070794        1.8990894663       -0.0601491455
 H          4.4305040669        2.2609787338        0.8940650043
 H          6.0005703227        1.8658965398       -1.0038161561
 H          5.1071577913        1.0837256314       -3.1697829030
 H          2.6818837381        0.6819658028       -3.4348135606
 H          1.1555863180        1.0383936604       -1.5366540123
 H          2.7263909902        0.8812419581        2.8969611389
 H          3.1052737272       -1.3845198818        3.4701013460
 H          2.6282018138       -3.7577328472        3.0044952914
 H          1.0276926284       -4.3821380258        1.2402918298
 H         -0.7687935369       -3.7099209370       -0.1747306577
 C          0.3441391006       -2.8922211285       -1.7955563394
 C          1.6886644670       -2.3162375619       -2.1095200061
 C          1.5315166633       -3.7965114956       -1.9487221726
 H          1.5891667640       -4.4221554076       -2.8265016524
 H          1.9380006978       -4.2473827600       -1.0568050717
 H          1.8396090361       -1.9116565684       -3.0978440614
 H          2.1987913855       -1.7660709361       -1.3336647955
 H         -0.3768290380       -2.8986946554       -2.6062614240
