  62
        -98.92757509
 C          2.3146074110        1.0969215419        0.4078483895
 C          2.4397619649       -0.2640494274        0.7802106988
 C          3.6711850263       -0.9665073291        0.3752581762
 C          4.6179828239       -0.2820382588       -0.2908740607
 C          5.9500998932       -0.7656133411       -0.8055947360
 C          6.7751503556       -1.6444873371        0.1471261705
 C          6.8610033975       -3.1060107922       -0.2955559299
 H          6.9766355314       -3.1343523686       -1.3809352197
 H          7.7583811513       -3.5510172003        0.1398734559
 C          5.6725981938       -3.9769440224        0.1082158793
 H          5.7036354701       -4.1542606174        1.1854555855
 H          5.7898870195       -4.9453689533       -0.3837703267
 C          4.2952874716       -3.4120870204       -0.2462595664
 H          4.3108917488       -2.9547842842       -1.2348882398
 H          3.5936928990       -4.2478439709       -0.2939243731
 C          3.7542395105       -2.4114444278        0.7860520010
 H          2.7272970758       -2.6797898241        1.0544363920
 H          4.3323232793       -2.4814939031        1.7124408138
 H          6.3703854289       -1.5776756167        1.1558680988
 H          7.7887995008       -1.2418417639        0.1782002613
 H          5.7863402071       -1.2927894290       -1.7485867466
 H          6.5057709177        0.1427257945       -1.0487642542
 O          4.4608896665        1.0295815455       -0.6222874960
 C          3.3191642502        1.7513819247       -0.3049559823
 O          3.3474143339        2.9283793349       -0.7058065257
 H         -1.4910533265        0.8611601750        1.0124854355
 C         -1.2602212477        1.2090465711        0.0167749173
 C         -0.0012878870        1.7183108943       -0.2660028266
 C          0.2784492849        2.1364935577       -1.5640851768
 C         -0.6861324864        2.0453882646       -2.5503214553
 C         -1.9382514842        1.5288363057       -2.2665759032
 C         -2.2280725337        1.1080836878       -0.9739008293
 N         -3.5053447291        0.6145295537       -0.6552344935
 S         -3.6323163669       -0.6778934616        0.4266723465
 O         -3.4778021186       -0.1762589595        1.7684058521
 O         -2.7479971841       -1.7487516880        0.0254883909
 C         -5.3317334137       -1.1438242493        0.1527105559
 C         -5.6190706285       -2.1869618400       -0.7071489825
 C         -6.9445904483       -2.5211166244       -0.9367117656
 C         -7.9545896157       -1.8082935948       -0.3083596407
 C         -7.6505826970       -0.7644889396        0.5530857405
 C         -6.3274832774       -0.4261687282        0.7880627562
 H         -6.0425454179        0.3702308488        1.4554649969
 H         -8.4385759873       -0.2149178626        1.0421329812
 H         -8.9852177970       -2.0698906253       -0.4888314208
 H         -7.1836130917       -3.3344422823       -1.6027669515
 H         -4.8004571527       -2.7183539707       -1.1656771993
 H         -4.0671215595        0.4448683873       -1.4793064339
 H         -2.6869465801        1.4530485331       -3.0405981304
 H         -0.4579833576        2.3735429711       -3.5533416189
 H          1.2576129089        2.5328482040       -1.7868094954
 C          1.0370748876        1.8040256139        0.8236665360
 H          0.6595154072        1.2175076877        1.6772204328
 C          1.2679419748        3.2254171619        1.3193300827
 C          0.7680432656        4.4459000639        0.6121871640
 C          0.1207332828        4.0069910252        1.8889273896
 H          0.2830196546        4.5886132186        2.7836919273
 H         -0.8596804690        3.5578141714        1.8248413381
 H          1.4011068422        5.3198073659        0.6223478911
 H          0.2199024205        4.3168024598       -0.3072320298
 H          2.2224320685        3.3247573331        1.8263581111
 O          1.5522697463       -0.8744638190        1.4386934032
