  62
        -98.94121203
 C         -1.9661748879       -0.9053235535       -0.2248390742
 C         -2.4921466580       -0.2436387549        0.9151030256
 C         -2.7294524047        1.1961660558        0.7878819333
 C         -2.4004866255        1.8222655887       -0.3559820169
 C         -2.5307677139        3.2965103694       -0.6294845589
 C         -3.9315274715        3.7297801896       -1.0837389235
 C         -5.0002902744        3.7241607304        0.0100073116
 H         -4.6401034288        4.2897797799        0.8697199667
 H         -5.8686134928        4.2523663343       -0.3885497342
 C         -5.4375579233        2.3230683877        0.4593559132
 H         -5.1238124066        1.5881306429       -0.2854515705
 H         -6.5276810953        2.2811156969        0.5124536623
 C         -4.9007808519        1.8991580334        1.8264406240
 H         -5.3113065714        2.5516908579        2.6000411748
 H         -5.2417959118        0.8806149229        2.0277374613
 C         -3.3703570849        1.9152128526        1.9366876015
 H         -3.0062916719        2.9411656850        1.9912941890
 H         -3.0847209754        1.3932827184        2.8532329346
 H         -4.2462610393        3.0824869335       -1.9055209625
 H         -3.8461728204        4.7462367105       -1.4748650641
 H         -2.2433188493        3.8575353149        0.2604790123
 H         -1.8201970090        3.5254140763       -1.4270347475
 O         -1.8786605999        1.1623439094       -1.4217231893
 C         -1.6494471248       -0.2081673302       -1.3914771802
 O         -1.1833172863       -0.6501422056       -2.4608720223
 H          0.6367489934       -1.1769122685       -0.8226785333
 C          0.7808112086       -1.8722787581       -0.0091890761
 C         -0.2912381637       -2.5930267476        0.4952483409
 C         -0.0624689398       -3.4926153429        1.5301980177
 C          1.2062328308       -3.6515581581        2.0580109025
 C          2.2637989847       -2.8973426106        1.5834709812
 C          2.0460348449       -1.9998511731        0.5440749982
 N          3.0908387295       -1.2122468592        0.0358935903
 S          2.7264294615        0.3785185180       -0.4109922686
 O          1.7315365195        0.9289295228        0.4820608055
 O          2.4260966031        0.4081264576       -1.8200344050
 C          4.3060546569        1.1592614062       -0.1266796700
 C          5.2736595545        1.0888000489       -1.1112016283
 C          6.5129779093        1.6623901309       -0.8746208189
 C          6.7636398596        2.2916811231        0.3357943995
 C          5.7823451294        2.3559434479        1.3136740454
 C          4.5410565672        1.7833724253        1.0839258582
 H          3.7442053370        1.8153966389        1.8097255470
 H          5.9780838509        2.8487080514        2.2523510678
 H          7.7287686439        2.7374735448        0.5171396395
 H          7.2767909793        1.6169980190       -1.6339188011
 H          5.0279452165        0.5976468204       -2.0383797694
 H          3.9324654155       -1.2624881882        0.5939793262
 H          3.2489791883       -2.9982282827        2.0127096257
 H          1.3693046042       -4.3525368050        2.8623060657
 H         -0.8915975600       -4.0533463799        1.9349523667
 C         -1.6829644679       -2.3876439420       -0.0590872352
 H         -2.3939752530       -2.7382329447        0.7029315320
 C         -1.8760722443       -3.2190392495       -1.3111950262
 C         -2.2107850643       -4.6737948110       -1.1803773305
 C         -3.2471643275       -3.7068928227       -1.6669606625
 H         -3.5299850922       -3.7251467123       -2.7084783737
 H         -4.0562485315       -3.4475650618       -0.9996311772
 H         -1.7788150103       -5.3639017018       -1.8884277411
 H         -2.3243871249       -5.0764215233       -0.1855891237
 H         -1.2276814565       -2.9208776969       -2.1248737572
 O         -2.7552792794       -0.8398434453        1.9951580601
