  62
        -98.94110464
 C         -2.3694849713       -1.1045174003       -0.3367085946
 C         -3.7014515876       -1.1119788076        0.1448915536
 C         -4.5934411582       -0.0861518050       -0.4100716001
 C         -4.1096132795        0.7859534287       -1.3135222181
 C         -4.8913538459        1.9166003901       -1.9159666759
 C         -4.7381020922        3.2011764001       -1.0895705766
 C         -4.9737041556        3.0043022713        0.4080249805
 H         -4.1841460311        2.3658126122        0.8117765854
 H         -4.8690703491        3.9814297650        0.8847163200
 C         -6.3422365135        2.4057241677        0.7622973086
 H         -6.7637466173        2.9675793326        1.5984271532
 H         -7.0250035224        2.5182023707       -0.0806042688
 C         -6.3006806082        0.9370819579        1.1881702536
 H         -7.2714014975        0.6809480314        1.6208713672
 H         -5.5488308970        0.8040480278        1.9702525490
 C         -6.0177158091       -0.0738875399        0.0698343393
 H         -6.2065706217       -1.0737582202        0.4713496992
 H         -6.7030256125        0.0973343488       -0.7626396746
 H         -5.4376320103        3.9451714039       -1.4750225026
 H         -3.7240174438        3.5835855298       -1.2281947210
 H         -5.9405875571        1.6340442582       -1.9760121305
 H         -4.5138630618        2.0968230626       -2.9238600264
 O         -2.8252013524        0.7628149778       -1.7519938665
 C         -1.9200196548       -0.1734965247       -1.2730300753
 O         -0.7779245478       -0.0750309615       -1.7615519416
 O         -4.1236210489       -1.9385756646        0.9972111447
 C         -1.3936800449       -2.1302485297        0.2153605876
 C         -0.3147809326       -1.3985910227        0.9743675542
 C         -0.6544164704       -0.7611084530        2.1653748289
 C          0.2834823958       -0.0289184760        2.8667764813
 C          1.5810001501        0.0853708681        2.3971745865
 C          1.9279744152       -0.5408305140        1.2086358340
 C          0.9840810350       -1.2836213024        0.5084696480
 H          1.2645659092       -1.7539386808       -0.4206345007
 N          3.2480258528       -0.4494962015        0.7244077354
 S          3.9986728342        1.0632557066        0.7717528728
 O          4.4320078752        1.3152278992        2.1239236409
 O          3.1449926482        2.0733019669        0.1862186405
 C          5.4144131904        0.7578530761       -0.2662212257
 C          5.3207811667        1.0116352834       -1.6215608972
 C          6.4142465490        0.7442791068       -2.4302631082
 C          7.5745993161        0.2275507844       -1.8733169260
 C          7.6529007303       -0.0222579132       -0.5113398456
 C          6.5636697005        0.2436394010        0.3031517394
 H          6.5799646679        0.0736505649        1.3668922644
 H          8.5574462311       -0.4222712949       -0.0825713063
 H          8.4236676738        0.0211010120       -2.5055741504
 H          6.3564516217        0.9397973026       -3.4890193191
 H          4.4016172056        1.4211154916       -2.0105042700
 H          3.3254347275       -0.8408135302       -0.2053121624
 H          2.3193102964        0.6646843994        2.9273055457
 H          0.0049950451        0.4623500298        3.7873391713
 H         -1.6710627335       -0.8393071210        2.5264364566
 H         -1.9735887735       -2.7256895324        0.9341881488
 C         -0.8790357498       -3.0463441044       -0.8738319329
 C         -0.2513725035       -4.3563337523       -0.5047255206
 C         -1.6032986253       -4.3283647414       -1.1502185104
 H         -1.6939866641       -4.6570037853       -2.1746775755
 H         -2.4672617732       -4.5532338911       -0.5423233226
 H          0.5871375327       -4.7095064159       -1.0853500370
 H         -0.1951543944       -4.6016992699        0.5449014613
 H         -0.4804755033       -2.5094299249       -1.7267766503
