  62
        -98.94407533
 C         -1.4670527061       -1.1783208422       -0.0073641006
 C         -2.5271985839       -0.7595691482        0.8252834888
 C         -3.0910955400        0.5733381032        0.5552891658
 C         -2.5740006703        1.3202319788       -0.4386447013
 C         -2.8949796644        2.7288675745       -0.8934225881
 C         -4.1827477542        3.4207860394       -0.4536833277
 C         -5.4652510930        2.7973095982       -1.0032894859
 H         -6.3150375594        3.3141509803       -0.5522060444
 H         -5.5022589867        2.9724762068       -2.0813147695
 C         -5.6178583716        1.2958238094       -0.7740017379
 H         -6.5728418743        0.9869001954       -1.2074418058
 H         -4.8318589424        0.7613960472       -1.3112673252
 C         -5.6067582527        0.8534643365        0.6879490260
 H         -6.3567382557        1.4148998041        1.2483027049
 H         -5.8902614127       -0.2020595665        0.7139231269
 C         -4.2544163083        0.9850829101        1.4111504456
 H         -4.1064022719        1.9904073026        1.7995437969
 H         -4.2606676725        0.3033646730        2.2669927057
 H         -4.1265222672        4.4466101728       -0.8282928665
 H         -4.2236782538        3.4849331032        0.6297491264
 H         -2.0433295976        3.3379850366       -0.5682452679
 H         -2.8573727321        2.7047466883       -1.9873012016
 O         -1.5480157143        0.8722424837       -1.2180235770
 C         -0.9623497233       -0.3631283791       -1.0175970985
 O         -0.0255600485       -0.6226358472       -1.7983266074
 H          0.3925372768       -0.5509716460        1.5855582191
 C          1.1076957984       -1.2589836006        1.1921725753
 C          0.6686198904       -2.3554442266        0.4609677530
 C          1.6170977867       -3.2497408011       -0.0208122528
 C          2.9661109747       -3.0337894455        0.2027033927
 C          3.3995365717       -1.9134555279        0.8876941157
 C          2.4579756824       -1.0184581695        1.3812143194
 N          2.8404955186        0.1604521841        2.0591240085
 S          2.5007515503        1.5986352548        1.2624516047
 O          3.0679877699        2.6350283797        2.0997045257
 O          1.0885364726        1.6950679309        0.9992335422
 C          3.4439078453        1.4786003190       -0.2472873142
 C          2.9425399209        0.7538685512       -1.3097918784
 C          3.7361324507        0.5941917368       -2.4364789046
 C          5.0038020825        1.1527476748       -2.4811797747
 C          5.4905953068        1.8793365007       -1.4045639105
 C          4.7072309220        2.0393381518       -0.2737472680
 H          5.0406413633        2.5967581103        0.5868586232
 H          6.4754916887        2.3162461593       -1.4415494190
 H          5.6141553191        1.0216519502       -3.3607769330
 H          3.3495858060        0.0286314549       -3.2691088862
 H          1.9501242905        0.3317652324       -1.2606738012
 H          3.8132433542        0.1672220416        2.3368164986
 H          4.4525392938       -1.7285361345        1.0382824984
 H          3.6898775165       -3.7373070329       -0.1791011300
 H          1.2987127032       -4.1154904946       -0.5782731470
 C         -0.8138540105       -2.5253767186        0.2355709088
 H         -1.2652388542       -2.9090248118        1.1632960164
 C         -1.1400100666       -3.4796438868       -0.8959939197
 C         -1.2871894330       -4.9486371916       -0.6364333576
 C         -2.4962626041       -4.1156199152       -0.9344616321
 H         -2.9847291595       -4.2325115056       -1.8901954960
 H         -3.1725934306       -3.8831180853       -0.1247544644
 H         -0.9476271635       -5.6420320074       -1.3910704364
 H         -1.1503014284       -5.2942660690        0.3770423285
 H         -0.7083111079       -3.1644056326       -1.8395766104
 O         -2.9780771559       -1.4656111422        1.7696948353
