  62
        -98.94411060
 C         -2.4257768803       -1.1178666898        0.2670394809
 C         -2.4341926804        0.2118743097       -0.2190446005
 C         -3.5157455004        1.0665687202        0.2879540387
 C         -4.4063269104        0.5721151310        1.1669066692
 C         -5.5515807504        1.3249060516        1.7882411184
 C         -6.8097062104        1.3860586807        0.9111290684
 C         -6.7152017905        2.3152823694       -0.2996684526
 H         -7.7267769505        2.4321967990       -0.6933861927
 H         -6.3764123605        3.2997260998        0.0245778164
 C         -5.8055144405        1.8005158483       -1.4238735021
 H         -5.6270056604        0.7314477384       -1.2877482909
 H         -6.3102627505        1.9211643973       -2.3850593522
 C         -4.4586506805        2.5163032682       -1.5273740928
 H         -3.8815485905        2.0489766574       -2.3294227923
 H         -4.6185019406        3.5632603580       -1.7948720439
 C         -3.6160522205        2.4635389396       -0.2463199128
 H         -4.0355007805        3.1299250504        0.5073201165
 H         -2.6037961905        2.8001096794       -0.4855619632
 H         -7.0517238704        0.3748584703        0.5762969195
 H         -7.6303102204        1.7320394213        1.5437549481
 H         -5.8020425803        0.8001471126        2.7126761190
 H         -5.2315798104        2.3366935119        2.0389324874
 O         -4.3520048003       -0.7078632485        1.6221162305
 C         -3.3707013703       -1.5811646489        1.1835416914
 O         -3.4411672802       -2.7239141184        1.6788194426
 O         -1.5884791604        0.6667786889       -1.0337900810
 C         -1.3495104203       -2.0920497202       -0.1820610181
 C         -0.0038206403       -1.5513636097        0.2360151713
 C          0.2631272297       -1.4155846683        1.5964633812
 C          1.4635432197       -0.8892444378        2.0312381706
 C          2.4239170997       -0.4818285287        1.1203862901
 C          2.1629269097       -0.6012953701       -0.2367547297
 C          0.9599963897       -1.1463228406       -0.6713171991
 H          0.7720640997       -1.2277272217       -1.7301553390
 N          3.1302268596       -0.2000364411       -1.1711997602
 S          3.9729927796        1.2284985492       -0.9277909217
 O          3.1913312595        2.2074080299       -0.2090154427
 O          4.4358543295        1.6146533079       -2.2433262121
 C          5.3754987796        0.7288540303        0.0513207488
 C          6.1142300497       -0.3608554301       -0.3665369201
 C          7.2161928797       -0.7477889493        0.3791845803
 C          7.5624531797       -0.0405066781        1.5208977696
 C          6.8133364796        1.0537481323        1.9249998285
 C          5.7086429696        1.4448172815        1.1843912381
 H          5.0926945796        2.2847748618        1.4644015572
 H          7.0836029096        1.6032666433        2.8124281579
 H          8.4207649997       -0.3438618574        2.0993610799
 H          7.8007602697       -1.5987603396        0.0685975612
 H          5.8145711397       -0.8831469110       -1.2595242095
 H          2.8278960396       -0.2816767021       -2.1312042701
 H          3.3572086597       -0.0579541983        1.4530750197
 H          1.6556619697       -0.7911364767        3.0890108505
 H         -0.4929969002       -1.7219646576        2.3069725715
 H         -1.5312260202       -3.0220229097        0.3743397629
 C         -1.4704628403       -2.3790544318       -1.6635771078
 C         -0.8498694002       -3.6174290923       -2.2353738765
 C         -2.3398896302       -3.5116212223       -2.1164434766
 H         -2.9226924403       -3.3852283332       -3.0166110367
 H         -2.8371686202       -4.0924787215       -1.3533669560
 H         -0.4101308903       -3.5683565633       -3.2200942366
 H         -0.3326887202       -4.2750060016       -1.5533755259
 H         -1.4723133403       -1.4799826424       -2.2691053687
