  62
        -98.94060298
 C         -2.0739693256       -0.9554902375        0.2632062978
 C         -1.9323724184        0.0429641443       -0.7325774452
 C         -2.1329044860        1.4302573762       -0.2837689825
 C         -2.4113495685        1.6809551639        1.0070926737
 C         -2.6821085688        3.0408405969        1.5818898730
 C         -4.1774370095        3.3846829158        1.5233808469
 C         -4.8153966196        3.1421923983        0.1555278985
 H         -4.8016591444        2.0711349172       -0.0583550883
 H         -5.8625050525        3.4437631691        0.2272315731
 C         -4.1441496192        3.8962450517       -1.0007619658
 H         -4.9200026494        4.3440070141       -1.6251878590
 H         -3.5332623995        4.7096149623       -0.6076696985
 C         -3.2871519583        3.0194207688       -1.9158595838
 H         -3.0346058845        3.6001572170       -2.8070029395
 H         -3.8665785965        2.1525424343       -2.2430166658
 C         -1.9708966782        2.5154904068       -1.3106984032
 H         -1.4082263298        3.3540172437       -0.8937655960
 H         -1.3725533399        2.0773589056       -2.1156585122
 H         -4.3009998400        4.4321183829        1.8042564422
 H         -4.7012403943        2.7701851545        2.2590482086
 H         -2.3561189229        3.0423084912        2.6234433767
 H         -2.1041249767        3.7809235440        1.0314493140
 O         -2.5310898620        0.7004003087        1.9380950273
 C         -2.3497386460       -0.6265195787        1.5930387280
 O         -2.4738718174       -1.4217935658        2.5481328591
 O         -1.6556865353       -0.1844879502       -1.9407965405
 C         -1.8368436382       -2.4365184417        0.0160065391
 C         -0.3768823609       -2.7743430112        0.2186474071
 C          0.0006096792       -3.9361529786        0.8827867722
 C          1.3368029659       -4.2234556685        1.0956893186
 C          2.3205318393       -3.3455525699        0.6772190510
 C          1.9529204535       -2.1845064678        0.0073178169
 C          0.6143049699       -1.9209565151       -0.2406934101
 H          0.3563098132       -1.0194405737       -0.7743463947
 N          2.9135278717       -1.2580712199       -0.4293181283
 S          2.5197025340        0.3826840144       -0.2853698595
 O          1.7514769694        0.6033171019        0.9197282800
 O          1.9336318418        0.8326315292       -1.5218614272
 C          4.1494916460        1.0900339696       -0.1141688768
 C          4.6587300432        1.3113793985        1.1515338373
 C          5.9385092157        1.8285813295        1.2785451848
 C          6.6847394218        2.1104980002        0.1440188686
 C          6.1601837514        1.8834625821       -1.1197546113
 C          4.8806886407        1.3679062821       -1.2537468220
 H          4.4258746206        1.1837072747       -2.2130935687
 H          6.7416211853        2.1067646912       -1.9996131014
 H          7.6802953585        2.5124726577        0.2458490696
 H          6.3470338626        2.0092114895        2.2597266402
 H          4.0376188714        1.0850275763        2.0035851729
 H          3.8405113312       -1.4528487938       -0.0753097775
 H          3.3622387330       -3.5532551635        0.8690548880
 H          1.6150197950       -5.1284156548        1.6140299722
 H         -0.7624787417       -4.6051423101        1.2515374344
 H         -2.4075430039       -2.9667733161        0.7921693902
 C         -2.3051634876       -2.9282914630       -1.3396137017
 C         -2.7166973719       -4.3598145744       -1.4996233598
 C         -3.7489468908       -3.2740432939       -1.5389500943
 H         -4.2095799226       -3.0261595365       -2.4831492391
 H         -4.4084362053       -3.1660723002       -0.6897995722
 H         -2.4662748109       -4.8648666410       -2.4196701471
 H         -2.6858946901       -4.9935193099       -0.6265513754
 H         -1.7888887506       -2.4551694022       -2.1645764927
