  62
        -98.93728277
 C         -1.2979902834       -1.5444510830        0.1802551199
 C         -2.3269906351       -1.0684193249        1.0273801793
 C         -3.2093201191       -0.0146679712        0.4892159393
 C         -2.9543864959        0.4737707722       -0.7385083957
 C         -3.7283613236        1.5230905560       -1.4917531188
 C         -3.4665756324        2.9584642092       -0.9990254617
 C         -3.2731055254        3.1002094088        0.5092389946
 H         -2.5060113136        2.3979789204        0.8416471901
 H         -2.9010831862        4.1089302595        0.7084642913
 C         -4.5387808038        2.9034521347        1.3402136894
 H         -4.2686323411        3.0285856562        2.3920586022
 H         -5.2562059853        3.6877671861        1.0867849904
 C         -5.2329788619        1.5519770798        1.1785975646
 H         -5.7140983936        1.4818082552        0.2069230396
 H         -6.0308477621        1.5038480222        1.9258084866
 C         -4.3404594106        0.3386673643        1.4240714772
 H         -4.9769366502       -0.5537635576        1.4765931175
 H         -3.8863694459        0.4263089142        2.4178364253
 H         -4.2944158438        3.5924310326       -1.3203947265
 H         -2.5597797325        3.3210444556       -1.4861560781
 H         -3.4182484088        1.4506059061       -2.5362153900
 H         -4.7879001226        1.2838399761       -1.4488881142
 O         -1.8897388400        0.0573623713       -1.4779676375
 C         -1.0428100792       -0.9568944800       -1.0600892728
 O         -0.1349176464       -1.2221472470       -1.8660080732
 O         -2.5121305412       -1.5094808203        2.1947168859
 C         -0.4304372774       -2.6805085614        0.6921640350
 C          1.0257741497       -2.3577538763        0.4787872747
 C          1.8578742174       -3.0736553711       -0.3707482725
 C          3.1780539919       -2.6946213090       -0.5427071099
 C          3.6979735758       -1.6042161126        0.1299025506
 C          2.8738314468       -0.8827715697        0.9838606766
 C          1.5521641733       -1.2623119762        1.1532259162
 H          0.9086584865       -0.6924303933        1.8129667834
 N          3.3947409657        0.2376454792        1.6692675916
 S          3.9031667859        1.5135038238        0.7083014438
 O          5.0757087916        1.1103897771       -0.0242947247
 O          4.0665576285        2.6304148296        1.6116545970
 C          2.5463504259        1.8162173173       -0.4062077731
 C          2.5002388568        1.1596218978       -1.6190099870
 C          1.4070933207        1.3593653415       -2.4461631801
 C          0.3843949345        2.2043919467       -2.0459282568
 C          0.4433379780        2.8529377974       -0.8221405756
 C          1.5318472513        2.6545331124        0.0105194853
 H          1.6190791104        3.1460755909        0.9666834561
 H         -0.3555186354        3.5068528810       -0.5098690671
 H         -0.4678630326        2.3472936815       -2.6914653390
 H          1.3473227067        0.8419799766       -3.3893552816
 H          3.3133114180        0.5089845431       -1.8962386674
 H          2.7661197040        0.5921140368        2.3768890654
 H          4.7194005000       -1.2871788143       -0.0051933336
 H          3.8110024675       -3.2552512613       -1.2138271186
 H          1.4654437790       -3.9129389123       -0.9205943220
 H         -0.6180487346       -2.6987941910        1.7788916043
 C         -0.8258995836       -4.0515755415        0.1642355969
 C         -2.2521456649       -4.3631448682       -0.1747627186
 C         -1.2239499102       -4.2849437735       -1.2611502407
 H         -0.9112852006       -5.2039435394       -1.7352091070
 H         -1.2364645807       -3.4345983839       -1.9244175635
 H         -2.6451503249       -5.3314434757        0.0966550730
 H         -2.9720009224       -3.5616715246       -0.0929569898
 H         -0.2643895401       -4.8451108970        0.6480751428
