  62
        -98.94190224
 C          1.1572972138        1.4255542969        0.5048596160
 C          2.1456082381        1.1917241246       -0.4768425835
 C          3.2607277289        0.2993001266       -0.0992996200
 C          3.2605395387       -0.2576484189        1.1260496545
 C          4.2543256091       -1.2258349668        1.7111080984
 C          4.0728058744       -2.6526265901        1.1700157070
 C          3.8728056366       -2.7453891253       -0.3403775562
 H          2.9873371143       -2.1700761506       -0.6193090658
 H          3.6604130882       -3.7905876776       -0.5818135305
 C          5.0645227188       -2.3007488836       -1.1855673341
 H          4.8161736248       -2.5129328251       -2.2286166373
 H          5.9344823654       -2.9062787640       -0.9216015875
 C          5.4490352574       -0.8230281371       -1.0809399498
 H          6.1246142309       -0.6043814401       -1.9130579952
 H          6.0078410550       -0.6257483771       -0.1700322959
 C          4.2802273071        0.1494161436       -1.2027613421
 H          3.7091481069       -0.0875181918       -2.1079051230
 H          4.6809340523        1.1564427280       -1.3709996804
 H          3.1884283950       -3.0852470389        1.6453523508
 H          4.9403092288       -3.2467355371        1.4632244324
 H          5.2672556711       -0.8731040378        1.5416705582
 H          4.0813603035       -1.2399533950        2.7896226604
 O          2.2660067111       -0.0270710174        2.0310613556
 C          1.1923830091        0.7913394585        1.7450971901
 O          0.3461573441        0.8778164178        2.6599171625
 H         -0.5460668298       -0.2735710367       -0.1760771222
 C         -1.0366824744        0.3290662093       -0.9247282950
 C         -0.8553862955        1.7049138753       -0.9226226171
 C         -1.4721869085        2.4542013797       -1.9166852199
 C         -2.2374441232        1.8303980105       -2.8873035555
 C         -2.4274494317        0.4602233464       -2.8751888839
 C         -1.8187181329       -0.2969946746       -1.8809250773
 N         -1.9834636087       -1.6890899545       -1.8147767475
 S         -2.1014457979       -2.4226090169       -0.3148815574
 O         -0.8047597273       -2.5122176372        0.3083234508
 O         -2.7543527075       -3.6853365622       -0.5902436259
 C         -3.2003527107       -1.3712747272        0.6182074380
 C         -2.7311482378       -0.5779163870        1.6445694908
 C         -3.6206278943        0.2599081674        2.3004664800
 C         -4.9536175910        0.2905197495        1.9237058700
 C         -5.4117661823       -0.5200693767        0.8956265518
 C         -4.5283765443       -1.3563721170        0.2346199415
 H         -4.8470332853       -2.0105328970       -0.5606385649
 H         -6.4503316320       -0.4995565953        0.6074835479
 H         -5.6381406257        0.9473660011        2.4368024267
 H         -3.2540615053        0.8854642355        3.0989729906
 H         -1.6891136587       -0.6096349741        1.9238769052
 H         -2.6426295161       -2.0736238325       -2.4753598737
 H         -3.0304389618       -0.0217186394       -3.6291856696
 H         -2.7020845951        2.4224055968       -3.6609627805
 H         -1.3474558373        3.5243780992       -1.9360289563
 C         -0.0348877810        2.3096767467        0.1921206899
 H         -0.6588741218        2.3043639150        1.0991431678
 C          0.4080404933        3.7311448020       -0.0854299263
 C         -0.4800042020        4.8834209036        0.2737444175
 C          0.7591514645        4.6154165800        1.0721660057
 H          1.5973066144        5.2884476579        0.9718369053
 H          0.6516001437        4.1988254665        2.0634636174
 H         -1.4323872242        4.6588355492        0.7296416243
 H         -0.4913570594        5.7468430963       -0.3742312153
 H          1.0177190761        3.8088808272       -0.9778696611
 O          2.1067532284        1.6986897793       -1.6293310109
