  62
        -98.93903235
 C          1.9036318960        0.4644006056       -0.5682888868
 C          2.9853017124        1.2572695768       -0.1200173639
 C          4.3255728178        0.6510164972       -0.1937329339
 C          4.4561235674       -0.6052455073       -0.6597033461
 C          5.6859056278       -1.4589732962       -0.8896978937
 C          7.0298292366       -1.0774299108       -0.2743092352
 C          7.0844090912       -1.1673268635        1.2503217339
 H          8.0513937447       -0.7813323809        1.5803561023
 H          7.0307057366       -2.2203219631        1.5382735522
 C          5.9743914902       -0.4292924857        1.9945620505
 H          6.1345465652       -0.5784109184        3.0658838172
 H          5.0084694627       -0.8759896620        1.7494753134
 C          5.9051533708        1.0752667419        1.7402168836
 H          6.8775444356        1.5276569018        1.9440110217
 H          5.1857846125        1.4954000281        2.4482264186
 C          5.4578667501        1.4887106042        0.3271636231
 H          6.2921063438        1.4826076946       -0.3701276356
 H          5.0814134507        2.5144149126        0.3791879190
 H          7.3304825633       -0.0889047592       -0.6087171970
 H          7.7645175949       -1.7826411479       -0.6725166855
 H          5.8074066333       -1.5158749553       -1.9772207751
 H          5.4133132447       -2.4662344161       -0.5588352128
 O          3.3792129703       -1.3344332378       -1.0762908387
 C          2.0872436383       -0.8339520872       -1.0391829379
 O          1.2201182514       -1.6299386982       -1.4459439904
 O          2.8402710554        2.4291385196        0.3205754023
 C          0.5010983733        1.0463815780       -0.5209803200
 C         -0.3501306021        0.2146958759        0.4050635208
 C          0.0035942231        0.1565844350        1.7519646588
 C         -0.7137369624       -0.6214502824        2.6383205520
 C         -1.8062035365       -1.3519253621        2.2025432005
 C         -2.1682314363       -1.3018002287        0.8623186154
 C         -1.4450230857       -0.5156801909       -0.0267158221
 H         -1.7352322243       -0.5147003133       -1.0632228485
 N         -3.2562460075       -2.0557762205        0.3950089186
 S         -4.3839470517       -1.4023499391       -0.6486935825
 O         -5.4790411418       -2.3469551597       -0.6314476120
 O         -3.7922868013       -1.1329598402       -1.9334629176
 C         -4.8887174349        0.1174918202        0.1363565799
 C         -4.2399056715        1.2951227731       -0.1750544233
 C         -4.6033131697        2.4545519716        0.4922168347
 C         -5.6017747876        2.4170158011        1.4530805670
 C         -6.2460613808        1.2259371654        1.7523052073
 C         -5.8846781848        0.0629101246        1.0923539783
 H         -6.3663319206       -0.8818315742        1.2860921961
 H         -7.0255392110        1.2005983264        2.4966623716
 H         -5.8807127416        3.3222715622        1.9689634853
 H         -4.1044576398        3.3815851412        0.2584991742
 H         -3.4717449517        1.2879422238       -0.9302839245
 H         -3.7096248778       -2.6147271543        1.1028279846
 H         -2.3647600023       -1.9676394846        2.8911601467
 H         -0.4243272277       -0.6599351399        3.6776176515
 H          0.8604022870        0.7241561518        2.0885891943
 H          0.6187708463        2.0450188923       -0.0758156425
 C         -0.0633158987        1.2009022395       -1.9162746116
 C         -1.1124770921        2.2359019769       -2.1874420093
 C          0.2808149378        2.4270551098       -2.7055782803
 H          0.4586109050        2.3242147827       -3.7655474261
 H          0.9075247473        3.1654571570       -2.2270962022
 H         -1.8957999961        2.0018337509       -2.8934407064
 H         -1.4272017292        2.8534665624       -1.3595725205
 H         -0.1190424429        0.2636220298       -2.4587505482
