  62
        -98.94338905
 C         -1.1139081895       -1.2890420702       -0.1288395003
 C         -1.9120982495       -0.8556579005        0.9623404099
 C         -2.8094296297        0.2775158994        0.7081246901
 C         -2.7971878500        0.8624423495       -0.5030272498
 C         -3.7050328103        1.9799823793       -0.9263965196
 C         -4.9889855903        1.4347589191       -1.5677712194
 C         -5.6756875800        0.3451743989       -0.7439488994
 H         -6.5860618500        0.0604690088       -1.2759717793
 H         -5.0331172598       -0.5378091109       -0.7134240196
 C         -6.0313309398        0.7616927887        0.6902882407
 H         -7.0484502897        0.4295540385        0.9089102108
 H         -6.0222012900        1.8490442887        0.7737419908
 C         -5.1262778395        0.1620186988        1.7683753105
 H         -5.0627367593       -0.9205732912        1.6322858804
 H         -5.5921680594        0.3418162086        2.7409103606
 C         -3.7004665696        0.7244277791        1.8324973703
 H         -3.7397950099        1.8141869691        1.8876424304
 H         -3.2376881894        0.3492007091        2.7497718502
 H         -5.6792002405        2.2664253890       -1.7205546092
 H         -4.7385052004        1.0174904293       -2.5458614095
 H         -3.9557613003        2.5903979992       -0.0610019195
 H         -3.1784796306        2.5948956395       -1.6577015296
 O         -1.9784073401        0.4610492798       -1.5048264700
 C         -1.1278209799       -0.6257672301       -1.3563902802
 O         -0.4584571800       -0.8726598999       -2.3779312104
 H          1.4412711902       -0.9210505596       -1.2673536107
 C          1.8831781204       -1.2589269896       -0.3415312908
 C          1.1573499607       -2.1031586798        0.4886422593
 C          1.7389476310       -2.5226041598        1.6787241291
 C          3.0148044410       -2.1097061796        2.0261145490
 C          3.7344104707       -1.2679883093        1.1962906390
 C          3.1575374104       -0.8411466993        0.0075506491
 N          3.8651757201        0.0587983609       -0.8268304309
 S          3.9380228799        1.6199778808       -0.2231961208
 O          4.4737287895        2.4360329611       -1.2879687308
 O          4.6888531101        1.5977140209        1.0058210091
 C          2.2450206098        2.0778429205        0.1082505095
 C          1.6444854001        1.6311669902        1.2689770796
 C          0.3173364301        1.9526798199        1.5018923598
 C         -0.3789421502        2.7198153099        0.5810985400
 C          0.2349784795        3.1527764101       -0.5834824501
 C          1.5575161395        2.8217267904       -0.8290944003
 H          2.0729485593        3.1391885706       -1.7215720604
 H         -0.3134924107        3.7421895201       -1.3006457799
 H         -1.4075167603        2.9786870797        0.7741036602
 H         -0.1717245497        1.5978839098        2.3953585898
 H          2.2193282403        1.0517229603        1.9729925594
 H          3.4812785199        0.0963670109       -1.7620946509
 H          4.7179206306       -0.9151231592        1.4602683188
 H          3.4520747512       -2.4431940696        2.9548564889
 H          1.1779955312       -3.1637471200        2.3427841392
 C         -0.2426775792       -2.5111100500        0.1128467495
 H         -0.6908037090       -2.9989362302        0.9925487495
 C         -0.2925561892       -3.5112403599       -1.0353956906
 C          0.8844171707       -3.8625817996       -1.8910477108
 C          0.3708519011       -4.8489475898       -0.8883740009
 H         -0.1475501488       -5.7281283099       -1.2396534509
 H          0.9654110413       -5.0104464898       -0.0016879910
 H          1.8292605707       -3.3816460794       -1.6929738310
 H          0.7020329806       -4.0415633296       -2.9398586508
 H         -1.2557002293       -3.5021253001       -1.5360600405
 O         -1.8832429792       -1.4054796906        2.0950787398
