  62
        -98.94003843
 C         -2.2558196843       -0.9421375922        0.6560486728
 C         -3.3413021664       -0.7407919619       -0.2315089564
 C         -4.1911095180        0.4277822611        0.0470680067
 C         -3.8994151678        1.2296624898        1.0861761021
 C         -4.6464142602        2.4817723911        1.4423382301
 C         -4.0375185495        3.7100423145        0.7517468534
 C         -3.8068271123        3.5255673278       -0.7482894067
 H         -3.4062520591        4.4661451524       -1.1327618608
 H         -3.0366437700        2.7649114440       -0.8986336804
 C         -5.0631424398        3.1412754742       -1.5424260475
 H         -5.9549414721        3.3747559156       -0.9598179916
 H         -5.1010385750        3.7462215514       -2.4507085909
 C         -5.1125950374        1.6763634277       -1.9798973217
 H         -4.1778300179        1.4117872913       -2.4805109980
 H         -5.9185725299        1.5666917801       -2.7102228413
 C         -5.3656006114        0.6562326939       -0.8630897886
 H         -6.2454399379        0.9505189264       -0.2876622159
 H         -5.5692947375       -0.3089751795       -1.3354735802
 H         -4.6987459120        4.5624242966        0.9184459877
 H         -3.0750439816        3.9288562092        1.2206005954
 H         -5.6896739124        2.3696911435        1.1534038833
 H         -4.5901705965        2.6189187631        2.5235241710
 O         -2.8480024050        1.0071565927        1.9171028783
 C         -2.0077222271       -0.0753242350        1.7246899102
 O         -1.0947953208       -0.1667643013        2.5717201179
 H          1.2440671672       -1.2195951411        0.7701997075
 C          0.9772479715       -1.3595791694       -0.2674104230
 C         -0.2947976920       -1.8081828353       -0.5978172544
 C         -0.6254223309       -1.9578014215       -1.9405793631
 C          0.3006771397       -1.6609067665       -2.9238213288
 C          1.5663353899       -1.2122795683       -2.5917536674
 C          1.9077207333       -1.0609367612       -1.2523251213
 N          3.2032147767       -0.6490967171       -0.8928857471
 S          3.4144836916        0.3196065093        0.4732563873
 O          3.3535106363       -0.5128802358        1.6477026078
 O          2.5135275699        1.4503182386        0.4254734595
 C          5.0968366422        0.8506122917        0.2097499827
 C          5.3471219123        2.1083320026       -0.3049071480
 C          6.6601547543        2.4903613103       -0.5329501826
 C          7.6943281308        1.6116449173       -0.2480547476
 C          7.4275629966        0.3522724442        0.2687383629
 C          6.1175949401       -0.0348829034        0.5012550578
 H          5.8616894571       -0.9982139976        0.9103672724
 H          8.2340959140       -0.3274954422        0.4912954221
 H          8.7148139530        1.9111293079       -0.4273618853
 H          6.8705185994        3.4698552926       -0.9312075877
 H          4.5112635925        2.7594592666       -0.5049806014
 H          3.7233221165       -0.2821278202       -1.6789165323
 H          2.2870750386       -0.9815415826       -3.3616656610
 H          0.0314617549       -1.7754321218       -3.9630171368
 H         -1.6202950516       -2.2773524609       -2.2061819124
 C         -1.2803320265       -2.1006529870        0.5089722806
 H         -0.7155453771       -2.1290440158        1.4512523078
 C         -1.9706989703       -3.4375834115        0.3246240853
 C         -1.1929600447       -4.6916290350        0.5818446807
 C         -2.2764330663       -4.2733485837        1.5290310366
 H         -3.1969046072       -4.8373883834        1.5438465135
 H         -1.9881755730       -3.8827986275        2.4946628157
 H         -1.3671624130       -5.5459902152       -0.0537769497
 H         -0.1683647106       -4.5836603215        0.9057460650
 H         -2.6943660553       -3.4461191467       -0.4789682427
 O         -3.6129403624       -1.4888695941       -1.2065560567
