  62
        -98.94120039
 C         -2.1555677200       -0.8223435102       -0.3287148607
 C         -3.0525125300       -0.5655259796        0.7425262591
 C         -3.6061892897        0.7907702706        0.8268295186
 C         -3.2204886193        1.7115334702       -0.0747514517
 C         -3.7305487390        3.1213967503       -0.1371857122
 C         -4.9575494588        3.2298327403       -1.0533270224
 C         -6.0345801091        2.1834391807       -0.7672681022
 H         -6.8640181390        2.3752322207       -1.4512406123
 H         -5.6411796494        1.1932285005       -1.0079537918
 C         -6.5523077393        2.1844742113        0.6778588878
 H         -6.2944268491        3.1264035214        1.1631655975
 H         -7.6419885293        2.1166540216        0.6594497276
 C         -6.0483745497        1.0202551514        1.5329304682
 H         -6.6388210499        0.9931335319        2.4525340681
 H         -6.2193414299        0.0780792713        1.0062996985
 C         -4.5710502798        1.0817981112        1.9417299984
 H         -4.3534651096        2.0517511513        2.3939656881
 H         -4.4006419901        0.3067251514        2.6946560186
 H         -4.6282283587        3.1091001199       -2.0878910023
 H         -5.3805879386        4.2301807005       -0.9454997728
 H         -3.9826781990        3.4540749107        0.8679728977
 H         -2.9345739387        3.7563943600       -0.5302049123
 O         -2.3442486793        1.4398698396       -1.0722428715
 C         -1.7904107696        0.1778317094       -1.2298498410
 O         -1.0084142395        0.1044094589       -2.2003643309
 H          0.6553260001       -0.9174694312       -1.1746361903
 C          0.8276732598       -1.5236729209       -0.2972617901
 C         -0.2149848504       -2.2745817505        0.2270994900
 C          0.0226633692       -3.0304056302        1.3688372603
 C          1.2705308192       -3.0307315103        1.9682778404
 C          2.3041660694       -2.2729102008        1.4473505503
 C          2.0726494898       -1.5085350111        0.3120366401
 N          3.1161267100       -0.7050943615       -0.2143523201
 S          3.4846442403        0.6615065587        0.7138992695
 O          3.6354808600        0.2578161491        2.0884659397
 O          2.5227342206        1.7146332289        0.4572397691
 C          5.0712329505        1.1066045281        0.0361792296
 C          5.1657613109        2.1557186177       -0.8567754307
 C          6.4046198810        2.4681403172       -1.3948895807
 C          7.5198350008        1.7271249271       -1.0351319703
 C          7.4080757704        0.6746830574       -0.1384372099
 C          6.1729945502        0.3584185079        0.4036910100
 H          6.0391040899       -0.4448626719        1.1087955802
 H          8.2778739002        0.1014528072        0.1390021403
 H          8.4823061609        1.9726236267       -1.4554465102
 H          6.4938325113        3.2865818270       -2.0911018409
 H          4.2725418411        2.7076943579       -1.1028603810
 H          2.8707015703       -0.3706157017       -1.1388396502
 H          3.2717279094       -2.2445073409        1.9198453005
 H          1.4382901689       -3.6227065601        2.8552183907
 H         -0.7859018910       -3.6036835698        1.7986936404
 C         -1.5845936103       -2.2298223003       -0.4082635702
 H         -2.2558657606       -2.8460696600        0.2049790699
 C         -1.5591532203       -2.8003910208       -1.8122136900
 C         -1.5207432707       -4.2875274409       -1.9903594095
 C         -2.7643440004       -3.5236238907       -2.3305778499
 H         -3.0301375203       -3.4005337109       -3.3696755100
 H         -3.6150152705       -3.6132177102       -1.6706606700
 H         -0.9297111307       -4.6933885313       -2.7967300893
 H         -1.5292533809       -4.8977159606       -1.1000189093
 H         -1.0051079400       -2.1927478612       -2.5154507101
 O         -3.3786608304       -1.4404186692        1.5888871193
