  62
        -98.93552097
 C          1.4315279388        1.1740303834        0.6970473576
 C          2.4078897182        0.9234663095       -0.2958512353
 C          2.9317698318       -0.4572470908       -0.3560565219
 C          2.4500404281       -1.3978941966        0.4710530846
 C          2.7861121230       -2.8671447120        0.5276882465
 C          4.2626579343       -3.2666967089        0.4014732460
 C          5.2601195563       -2.2604664751        0.9940764731
 H          4.7298393517       -1.5193191408        1.5943382556
 H          5.9452851831       -2.7903390765        1.6582977985
 C          6.0959782542       -1.5496624573       -0.0728598177
 H          6.9990120817       -1.1512819767        0.3958244135
 H          6.4105476216       -2.2842239987       -0.8173192327
 C          5.4030787601       -0.3863325312       -0.7813857524
 H          5.2877977459        0.4530558882       -0.0904132192
 H          6.0555682496       -0.0481005504       -1.5899077001
 C          4.0160415071       -0.6980492525       -1.3673402398
 H          3.9719065672       -1.7080487412       -1.7683255309
 H          3.8281558301        0.0057068949       -2.1830374529
 H          4.3724149261       -4.2286799277        0.9051322878
 H          4.5059031667       -3.4329189054       -0.6470880257
 H          2.3950214378       -3.2102628578        1.4888493877
 H          2.2051285105       -3.3691960009       -0.2523105574
 O          1.4999602397       -1.1175411971        1.4059193274
 C          0.9629806150        0.1478597803        1.5213662741
 O          0.0804270332        0.2496574234        2.3995853142
 O          2.8394334796        1.7782997350       -1.1112757024
 C          0.6969892365        2.4940862889        0.8988210878
 C         -0.7472261653        2.3099818179        0.4997192871
 C         -1.7837359325        2.8963512668        1.2162598959
 C         -3.1014805390        2.6879158807        0.8485726921
 C         -3.4118685717        1.8578850168       -0.2139061548
 C         -2.3821393902        1.2578714057       -0.9278976920
 C         -1.0625688668        1.5145457450       -0.5920639372
 H         -0.2766984131        1.0397290945       -1.1608907206
 N         -2.6361758611        0.3403457034       -1.9717170707
 S         -2.1963007773       -1.2449272027       -1.6297284768
 O         -0.7861477068       -1.3161317202       -1.3501751530
 O         -2.6695300377       -2.0199503533       -2.7567116006
 C         -3.1593458138       -1.6494626736       -0.1832280968
 C         -4.3844015626       -2.2648773219       -0.3597987784
 C         -5.1800704210       -2.5092268559        0.7472649166
 C         -4.7444867804       -2.1240877762        2.0066351842
 C         -3.5147888487       -1.5047413751        2.1661152609
 C         -2.7099954522       -1.2615737631        1.0631141224
 H         -1.7478327420       -0.7846325759        1.1695059834
 H         -3.1658128531       -1.2011228473        3.1401380967
 H         -5.3648163234       -2.3080810695        2.8695756104
 H         -6.1351963161       -2.9940673151        0.6252272659
 H         -4.6787593936       -2.5484112403       -1.3575320282
 H         -3.5954000042        0.3490960887       -2.2931857831
 H         -4.4397060568        1.6633339997       -0.4808978804
 H         -3.8959502685        3.1525919548        1.4118319835
 H         -1.5527272580        3.5002109633        2.0813749689
 H          0.7073787315        2.6901820707        1.9849725857
 C          1.3382681823        3.6914008378        0.2173487826
 C          0.8741731263        4.2086462139       -1.1074477373
 C          0.6162474344        5.0037570618        0.1354324787
 H          1.1835285645        5.9081044244        0.2949245785
 H         -0.3997442756        5.0475802529        0.4961346571
 H          1.6255495586        4.5472073335       -1.8039747748
 H          0.0394216458        3.7117596250       -1.5788080394
 H          2.4053575242        3.7372898979        0.4005654529
