  62
        -98.94426408
 C          1.3179399858        1.4366866134        0.6350836289
 C          2.1289210426        1.0275937394       -0.4533263779
 C          3.1180736806       -0.0166650785       -0.1557762347
 C          3.1922182375       -0.5445637764        1.0782276851
 C          4.1364022926       -1.6263805364        1.5258476325
 C          3.6396004252       -3.0426148064        1.2035810386
 C          3.7208002001       -3.4422377962       -0.2704122262
 H          4.7236356272       -3.2387109188       -0.6483802419
 H          3.5668968728       -4.5223105872       -0.3159876084
 C          2.6800948860       -2.7628603045       -1.1721868539
 H          2.2367751563       -3.5076092769       -1.8382403648
 H          1.8610444179       -2.3718206973       -0.5622100504
 C          3.2364458206       -1.6445603027       -2.0546957539
 H          3.9323315004       -2.0679555812       -2.7831592155
 H          2.4026321521       -1.1982033629       -2.6029133459
 C          3.9544822019       -0.5248933285       -1.2906250180
 H          4.9195589719       -0.8762579103       -0.9262064283
 H          4.1200170607        0.3057719522       -1.9813957944
 H          4.2474013084       -3.7423097400        1.7824128292
 H          2.6051998617       -3.1373708083        1.5441371018
 H          5.1177787368       -1.4708532884        1.0769304115
 H          4.2292375307       -1.5319949500        2.6100319552
 O          2.3881454067       -0.1356284855        2.0949000680
 C          1.4058918403        0.8189263314        1.8844228762
 O          0.6790495529        1.0286318991        2.8779412728
 O          2.0384754595        1.4933715815       -1.6178693235
 C          0.1707088654        2.4151193674        0.4458473091
 C         -0.6693008281        1.9679969663       -0.7277582840
 C         -1.1720003422        2.8123291982       -1.7081185870
 C         -1.9503598832        2.3009526743       -2.7335361799
 C         -2.2560017656        0.9535330700       -2.7985302353
 C         -1.7538417192        0.0999533956       -1.8221171885
 C         -0.9756312382        0.6158419955       -0.8015765446
 H         -0.5649078186       -0.0580240308       -0.0663184650
 N         -2.0137747523       -1.2776034167       -1.8434313319
 S         -2.1051039825       -2.1362688892       -0.4145710952
 O         -0.7956312425       -2.3190423720        0.1600135306
 O         -2.8072826848       -3.3491001339       -0.7774658423
 C         -3.1390596189       -1.1440124584        0.6490250892
 C         -2.6208472037       -0.5188938836        1.7642695903
 C         -3.4539881542        0.2800228519        2.5324409743
 C         -4.7838560151        0.4379502496        2.1764496812
 C         -5.2933614806       -0.2051782919        1.0581454485
 C         -4.4647854940       -1.0011273035        0.2854353324
 H         -4.8259153975       -1.5260828087       -0.5838953820
 H         -6.3296352097       -0.0856076162        0.7863821631
 H         -5.4255414023        1.0635517235        2.7765015085
 H         -3.0484348208        0.7770036422        3.3995646095
 H         -1.5811558208       -0.6516118361        2.0224700064
 H         -2.6866039272       -1.5873498079       -2.5279168274
 H         -2.8605568065        0.5617357017       -3.6017764998
 H         -2.3276228769        2.9653920512       -3.4960470231
 H         -0.9391162295        3.8641634241       -1.6847918138
 H         -0.4497104503        2.2903238910        1.3499891488
 C          0.5657853968        3.8834467194        0.3990549706
 C          1.8885878226        4.3496776490        0.9283553668
 C          1.6070515346        4.4082874903       -0.5415149698
 H          1.4470789932        5.3769765275       -0.9923760215
 H          2.0944297816        3.6957803840       -1.1871924257
 H          1.9207268285        5.2727079312        1.4879947236
 H          2.5772732559        3.5972948505        1.2857825710
 H         -0.2796198179        4.5352458362        0.5970629026
