  62
        -98.94366882
 C         -1.8342715700        0.8513660661       -0.7856513008
 C         -2.0902391373        0.4161216720        0.5372015635
 C         -3.5031757994        0.4030504947        0.9368298695
 C         -4.4477235806        0.8209746365        0.0746211749
 C         -5.9267583224        0.8843518593        0.3442310242
 C         -6.6588858890       -0.4451896752        0.1155419178
 C         -6.3958179042       -1.5226451489        1.1684475693
 H         -6.5751997828       -1.1097807926        2.1616046050
 H         -7.1308816601       -2.3137612920        1.0070841414
 C         -4.9897493335       -2.1362235542        1.1100660948
 H         -5.0637745518       -3.2238226124        1.1802019119
 H         -4.5326260722       -1.9095846249        0.1440247760
 C         -4.0486304126       -1.6735260386        2.2224297627
 H         -3.0724971526       -2.1377225408        2.0597054857
 H         -4.4282018096       -2.0144503725        3.1882323112
 C         -3.8449648430       -0.1541145070        2.2855717643
 H         -4.7361537236        0.3294622274        2.6848187649
 H         -3.0040336217        0.0513169638        2.9521143914
 H         -6.3890249972       -0.8270668042       -0.8719018556
 H         -7.7299474346       -0.2300720009        0.1065006950
 H         -6.3370452346        1.6256987781       -0.3448755596
 H         -6.0995731601        1.2256155410        1.3651742028
 O         -4.1543086359        1.2640040693       -1.1777307029
 C         -2.8500951470        1.2645634379       -1.6463465556
 O         -2.7270427684        1.6498285691       -2.8274590919
 O         -1.1914259690        0.0576280393        1.3405423047
 C         -0.4096101941        0.8663012893       -1.3074735848
 C          0.2035988289       -0.5078370153       -1.1866759428
 C         -0.5381907815       -1.6186314128       -1.5812127258
 C         -0.0135724782       -2.8917174938       -1.4781671947
 C          1.2687240269       -3.0847990961       -0.9945722043
 C          2.0234222099       -1.9834139874       -0.6115385009
 C          1.4893346434       -0.7051482047       -0.7091092491
 H          2.0912607442        0.1362181850       -0.4107233101
 N          3.3150171462       -2.1487024227       -0.0954832969
 S          4.5154958328       -1.0290494994       -0.3977059499
 O          4.4162534307       -0.4832076129       -1.7313344831
 O          5.7457020050       -1.7289449063       -0.0930359112
 C          4.2678260191        0.2536177749        0.8120734095
 C          3.8262273023       -0.0834464901        2.0759643367
 C          3.6688260631        0.9200230286        3.0184999033
 C          3.9617647199        2.2342056036        2.6873591795
 C          4.4119773608        2.5552850565        1.4162450270
 C          4.5676782834        1.5568137936        0.4674800231
 H          4.9035024161        1.7630983853       -0.5365617745
 H          4.6394736003        3.5781248210        1.1603641462
 H          3.8363624378        3.0129184438        3.4231447390
 H          3.3147174473        0.6742894275        4.0067671935
 H          3.6005808730       -1.1125173769        2.3002577433
 H          3.6633783310       -3.0956254933       -0.0905285050
 H          1.6797747882       -4.0794221932       -0.9113524448
 H         -0.6052950837       -3.7429299323       -1.7803356608
 H         -1.5388506602       -1.4688482403       -1.9644452573
 H         -0.4759855211        1.1159762933       -2.3770721989
 C          0.3860139293        1.9464140026       -0.6035834957
 C          1.5214328009        2.6303482216       -1.3019171052
 C          0.2381459974        3.3653880406       -1.0605298614
 H          0.2238161923        4.1480597330       -0.3172587351
 H         -0.4158955084        3.5486861894       -1.9008775972
 H          2.3874191704        2.9085640363       -0.7206075079
 H          1.7511026705        2.3185157510       -2.3099383162
 H          0.4732031965        1.7693417921        0.4624911195
