  62
        -98.93856507
 C         -2.3994219240       -1.2033624942       -0.0807984364
 C         -3.4814660270       -0.7989460624        0.7400400658
 C         -4.3954147369        0.2094598899        0.1802511053
 C         -4.1564127294        0.7037471331       -1.0464765551
 C         -4.9650117779        1.7052562808       -1.8331196112
 C         -5.5319385834        2.9136696795       -1.0769497212
 C         -4.6457985874        3.4392874291        0.0617797262
 H         -3.6574516002        2.9783736064        0.0107412020
 H         -4.5083503848        4.5150402701       -0.0631030155
 C         -5.2502704427        3.2004757397        1.4474656267
 H         -4.7865473546        3.8911688174        2.1557857208
 H         -6.3159152264        3.4367694541        1.4100578178
 C         -5.0694876277        1.7899795662        2.0065426311
 H         -4.0179258521        1.6229185977        2.2552365556
 H         -5.6339532948        1.7233257057        2.9396381020
 C         -5.5160650929        0.6482108237        1.0787540754
 H         -5.7565842885       -0.2165666736        1.7029770179
 H         -6.4018113680        0.9239828356        0.5119794788
 H         -5.6825771426        3.7032067589       -1.8152111312
 H         -6.5145203852        2.6664699711       -0.6777447605
 H         -4.2947764258        2.0506040176       -2.6242844630
 H         -5.7861914120        1.1700713884       -2.3191651765
 O         -3.0924313284        0.2991487872       -1.7963350986
 C         -2.1904400985       -0.6507380343       -1.3430560909
 O         -1.2792765935       -0.9070993719       -2.1549034937
 O         -3.6847032707       -1.2726031076        1.8889809091
 C         -1.4333075608       -2.2380318766        0.4737455756
 C         -0.1222051425       -1.5497620626        0.7611269721
 C          0.0413644833       -0.8674635366        1.9637330411
 C          1.2043079889       -0.1680239921        2.2256170604
 C          2.2244499316       -0.1243399960        1.2907320489
 C          2.0628291014       -0.7857245205        0.0813708816
 C          0.9038348065       -1.5084064021       -0.1698032393
 H          0.7865870617       -2.0058956669       -1.1194666312
 N          3.0856904886       -0.7355916511       -0.8818364988
 S          3.7588187465        0.7602084933       -1.2404173696
 O          2.8286136939        1.8414052884       -1.0089930618
 O          4.2760190796        0.6312995643       -2.5855761572
 C          5.1301635781        0.8798972082       -0.1086527266
 C          5.2758798105        2.0024736941        0.6825666148
 C          6.3569668579        2.0778403038        1.5472919618
 C          7.2689272256        1.0352180400        1.6044169225
 C          7.1100695403       -0.0842530924        0.8010057258
 C          6.0324017913       -0.1652131668       -0.0661971546
 H          5.8740101225       -1.0155307773       -0.7081154839
 H          7.8213173201       -0.8930692166        0.8481237339
 H          8.1083583864        1.0955725463        2.2789598369
 H          6.4817752311        2.9477055033        2.1720510661
 H          4.5379158674        2.7855991294        0.6089221909
 H          2.8536524505       -1.2287802451       -1.7325204387
 H          3.1289019004        0.4296867902        1.4820709892
 H          1.3186624514        0.3520949448        3.1645616255
 H         -0.7640641733       -0.8819302593        2.6847660129
 H         -1.8688420415       -2.5552701210        1.4307038514
 C         -1.3068001909       -3.4478489133       -0.4278073364
 C         -0.6768742764       -4.6969705910        0.1097516368
 C         -2.1511048557       -4.6549315320       -0.1546603293
 H         -2.5419652085       -5.2093650854       -0.9947114581
 H         -2.8219188037       -4.6142347805        0.6908522579
 H         -0.0529755204       -5.2840327798       -0.5466251402
 H         -0.3455025322       -4.6828894143        1.1369262770
 H         -1.1305378652       -3.1960528671       -1.4664445633
