  62
        -98.92963257
 C         -2.2049941212       -1.0608434100       -0.4781618086
 C         -2.9928737212       -0.0266690107       -1.0412541599
 C         -4.3621718212        0.0949100898       -0.5114101400
 C         -4.7914385212       -0.7432209190        0.4475061010
 C         -6.1679215712       -0.7916105584        1.0565068010
 C         -6.5970795313        0.4399460526        1.8771894296
 C         -7.3879328013        1.4858158016        1.0816129283
 H         -7.8641317513        0.9941715906        0.2323644389
 H         -8.1923662213        1.8707552423        1.7117016978
 C         -6.5877620614        2.6958023310        0.5898472369
 H         -7.1924621814        3.2150567901       -0.1568033837
 H         -6.4337308114        3.3839655020        1.4241237561
 C         -5.2154560713        2.3893965104       -0.0099550727
 H         -4.5100678613        2.1522247914        0.7900173375
 H         -4.8435547714        3.2963800998       -0.4904795938
 C         -5.2017118713        1.2290637892       -1.0241141814
 H         -6.2147135712        0.8904177989       -1.2358977710
 H         -4.7446265413        1.5575574381       -1.9595791618
 H         -7.2337712112        0.0740394135        2.6843691300
 H         -5.7201700913        0.8932491831        2.3386348890
 H         -6.8960469612       -0.9678583694        0.2613479912
 H         -6.1656653712       -1.6691667776        1.7063888020
 O         -3.9966590811       -1.7187451684        0.9697038621
 C         -2.6973811311       -1.8916972988        0.5318054923
 O         -2.0842213711       -2.8173840681        1.1038250134
 H          1.4032518589       -2.1906312588        0.4246279927
 C          1.3006934188       -1.1138201987        0.4578349715
 C          0.2154545788       -0.5093606795       -0.1593394393
 C          0.0969992587        0.8756761505       -0.0902957009
 C          1.0519575687        1.6318083914        0.5656105282
 C          2.1478397787        1.0249510321        1.1562297889
 C          2.2647239388       -0.3561902079        1.1051031006
 N          3.4231570688       -0.9662392872        1.6640237113
 S          4.6343167288       -1.1311829685        0.4978559915
 O          4.1027000689       -1.6893212700       -0.7272714878
 O          5.6933484889       -1.8877471177        1.1272248824
 C          5.1396508388        0.5505633812        0.2315098595
 C          4.6162791087        1.2471633599       -0.8398971113
 C          4.9805780587        2.5725808097       -1.0166449929
 C          5.8554504486        3.1728824308       -0.1237301936
 C          6.3734931487        2.4579105521        0.9460822073
 C          6.0113932687        1.1331059423        1.1304597289
 H          6.3895111387        0.5371077632        1.9445812696
 H          7.0550448186        2.9286264829        1.6362010067
 H          6.1358159286        4.2049521306       -0.2639673048
 H          4.5777167787        3.1300838287       -1.8468447935
 H          3.9402674688        0.7404537191       -1.5102592507
 H          3.2302848288       -1.8840055268        2.0445019924
 H          2.9016143287        1.6049212628        1.6633331283
 H          0.9471714786        2.7049366514        0.6085892269
 H         -0.7471705813        1.3502871699       -0.5675090415
 C         -0.7786227111       -1.3531418605       -0.9119410683
 H         -0.6036076811       -2.4017390501       -0.6209961570
 C         -0.5762439111       -1.2764008922       -2.4201870084
 C          0.1840538788       -0.1888209530       -3.1108921396
 C          0.7765274389       -1.5600002029       -3.0060938080
 H          0.8368337789       -2.1702949139       -3.8948624373
 H          1.6030741389       -1.7014172820       -2.3229454778
 H         -0.1880908812        0.1472339658       -4.0665384700
 H          0.6125004788        0.5980447077       -2.5111751506
 H         -1.4298871511       -1.6778466429       -2.9575138379
 O         -2.5993486312        0.7583143282       -1.9394944308
