  62
        -98.93874224
 C         -1.1353721627       -1.6970043040        0.3781081442
 C         -1.4498361904       -0.4764785196        1.0254056862
 C         -2.7554657864        0.1383770427        0.7175923612
 C         -3.5554556516       -0.4647086336       -0.1810649047
 C         -4.8951333585       -0.0109863247       -0.6983286689
 C         -4.7800381408        1.1506155383       -1.6965846164
 C         -3.8553164897        2.2811407531       -1.2542640929
 H         -2.8509691186        1.8823918476       -1.1021453879
 H         -3.8016643459        3.0030620001       -2.0732796206
 C         -4.3044155723        3.0265601798        0.0005147626
 H         -5.3178768479        3.4046612673       -0.1503965367
 H         -3.6470276396        3.8909581053        0.1213055417
 C         -4.2716868425        2.2239417971        1.3043073554
 H         -5.1501392570        1.5910404534        1.4011445249
 H         -4.3170264328        2.9407225480        2.1293625501
 C         -3.0083484861        1.3950795828        1.5145666319
 H         -2.1267275478        2.0273679946        1.3688606349
 H         -2.9683882264        1.0842819474        2.5657256729
 H         -5.7811334878        1.5447022402       -1.8807657647
 H         -4.3961781256        0.7510781273       -2.6384560991
 H         -5.5478204798        0.2546136942        0.1277587111
 H         -5.3387322953       -0.8677435416       -1.2104767921
 O         -3.1975234288       -1.6222415125       -0.8041904630
 C         -2.0042940444       -2.2726756719       -0.5485556164
 O         -1.8603096499       -3.3246435709       -1.2010056248
 O         -0.6712504990        0.0845960008        1.8433133715
 C          0.1999736113       -2.3363839864        0.7210000700
 C          1.2092250564       -2.0131300693       -0.3534294134
 C          1.2082400019       -2.6600068999       -1.5851039077
 C          2.1344024455       -2.3168884348       -2.5528807553
 C          3.0706712749       -1.3252225845       -2.3179961968
 C          3.0764386833       -0.6703167829       -1.0914371078
 C          2.1495219896       -1.0192400371       -0.1190426435
 H          2.1628767359       -0.5080147298        0.8320102428
 N          4.0194036008        0.3285845007       -0.8262474613
 S          3.7947258917        1.4975906037        0.3330447027
 O          4.7715554352        2.5128715726       -0.0034022393
 O          3.9228282080        0.9281717140        1.6514021785
 C          2.1610919981        2.1804821756        0.1084268295
 C          1.6133542630        2.2699565101       -1.1553373029
 C          0.3813323597        2.8850613804       -1.3080114607
 C         -0.2702375943        3.4135860052       -0.2052416509
 C          0.2924444943        3.3154818821        1.0572019840
 C          1.5171831891        2.6893178305        1.2173932646
 H          1.9805459633        2.5783347667        2.1845413146
 H         -0.2163466148        3.7193870610        1.9181624517
 H         -1.2238330870        3.9018252298       -0.3326926353
 H         -0.0657237624        2.9530864875       -2.2870809794
 H          2.1377699861        1.8597737129       -2.0030693264
 H          4.5746322440        0.6410529678       -1.6076970789
 H          3.7932808573       -1.0601521992       -3.0745112936
 H          2.1250446137       -2.8253592018       -3.5050847915
 H          0.4624468382       -3.4128747554       -1.7846833415
 H          0.5296373216       -1.8358116680        1.6419245359
 C          0.1080550672       -3.8241207149        0.9920663570
 C          1.2317692787       -4.4935247318        1.7229864214
 C         -0.0922710219       -4.3004303108        2.3979536251
 H         -0.7186138038       -5.1639301622        2.5647898102
 H         -0.1636622957       -3.5531710655        3.1751107214
 H          1.5180935615       -5.4909776026        1.4269485693
 H          2.0578762103       -3.8748420289        2.0412868509
 H         -0.3864367884       -4.3812167065        0.2076320362
