  62
        -98.93750969
 C         -2.2658047990       -0.8157011869        0.0800596519
 C         -3.1429580862       -0.2370853533        1.0327988470
 C         -4.0571317929        0.8220955806        0.5664777206
 C         -4.0126173739        1.1852689073       -0.7284872507
 C         -4.8578737304        2.2048291951       -1.4446120661
 C         -6.2811175001        1.7004223334       -1.7317281312
 C         -6.9520557828        0.9744047204       -0.5687754809
 H         -7.9041693003        0.5774908266       -0.9308308299
 H         -6.3366643946        0.1218375647       -0.2758649265
 C         -7.2418005154        1.8373172096        0.6570752459
 H         -7.8832687343        2.6715162979        0.3643180731
 H         -7.8028864604        1.2192795958        1.3627124169
 C         -6.0183917212        2.3968020165        1.3864754879
 H         -6.3603684938        2.7675015583        2.3571610937
 H         -5.6030707964        3.2516107743        0.8595145630
 C         -4.9242481054        1.3731454561        1.6725240924
 H         -4.2284990749        1.8008112403        2.4044597523
 H         -5.3668165123        0.5038776869        2.1721022014
 H         -6.8934977620        2.5512211050       -2.0351898529
 H         -6.2295188164        1.0047898604       -2.5729417431
 H         -4.8824183333        3.1319004741       -0.8795773341
 H         -4.3628493261        2.4085528133       -2.3967655744
 O         -3.1572570691        0.5994927808       -1.6122186367
 C         -2.2685771812       -0.3952070502       -1.2489110716
 O         -1.5611091637       -0.7951511598       -2.1975034495
 H          0.4003117807       -0.7993751144       -1.1771945354
 C          0.8159235285       -0.8415856209       -0.1811618153
 C          0.0538417652       -1.3697345377        0.8510925896
 C          0.6028380732       -1.4123812878        2.1272765338
 C          1.8803706914       -0.9341757790        2.3604834686
 C          2.6326433500       -0.3986208845        1.3305284142
 C          2.0932412818       -0.3510053299        0.0515129579
 N          2.8310104712        0.2194161711       -0.9987997304
 S          4.4329624561       -0.2293497178       -1.2051809565
 O          4.7297273251        0.0472421709       -2.5936411504
 O          4.6697296164       -1.5818530777       -0.7557727835
 C          5.3309152892        0.9191824505       -0.1823278323
 C          5.0920706585        2.2685135434       -0.3550065383
 C          5.7909032183        3.1766521100        0.4241081550
 C          6.7138796758        2.7231565274        1.3549326957
 C          6.9447275248        1.3654192973        1.5139224551
 C          6.2480950672        0.4515699590        0.7383554236
 H          6.3895748738       -0.6133781155        0.8317059138
 H          7.6625002846        1.0149648804        2.2380678707
 H          7.2559111667        3.4326310625        1.9600364621
 H          5.6133398959        4.2332480843        0.3036713116
 H          4.3678814526        2.5794973441       -1.0896191175
 H          2.3373499472        0.2243539284       -1.8797883186
 H          3.6267329822       -0.0216742479        1.5070350833
 H          2.2942570519       -0.9742542197        3.3564421352
 H          0.0161077787       -1.8139530936        2.9404546255
 C         -1.3345462843       -1.9036654096        0.5872876309
 H         -1.7592482866       -2.2151370935        1.5510960489
 C         -1.2741887006       -3.1155928408       -0.3225851846
 C         -0.8320966261       -4.4293664755        0.2457184151
 C         -2.2659431497       -4.2229653371       -0.1386437119
 H         -2.6453627388       -4.7250336642       -1.0159428500
 H         -2.9946624999       -4.1143687556        0.6514462252
 H         -0.5888782046       -4.4628788815        1.2968769430
 H         -0.2214531092       -5.0750248434       -0.3666968448
 H         -0.9757845645       -2.8797412170       -1.3359845284
 O         -3.1716904088       -0.5985322730        2.2398983671
