  62
        -98.93552670
 C          2.1787116473        1.3818382093        0.4871958200
 C          1.8672486869        0.1471886598        1.1182901005
 C          2.9167666380       -0.8746425987        1.1175314173
 C          4.1028001426       -0.6035982889        0.5437233841
 C          5.2815331827       -1.5351248680        0.4635452535
 C          5.2129557005       -2.5234025741       -0.7091216265
 C          4.1843535090       -3.6451320208       -0.5578645326
 H          4.3957105698       -4.3790575815       -1.3380450935
 H          4.3280967788       -4.1411160340        0.4025366240
 C          2.7241065864       -3.1900128736       -0.6917260693
 H          2.6910679252       -2.2058811157       -1.1646289823
 H          2.1881549674       -3.8790259714       -1.3481735484
 C          1.9553928304       -3.1289173994        0.6285784307
 H          1.8550788445       -4.1340783642        1.0441769944
 H          0.9530996739       -2.7428346965        0.4264962483
 C          2.5928819414       -2.2217773687        1.6884202541
 H          1.8707782299       -2.0774600294        2.4962427104
 H          3.4881135846       -2.6883394905        2.0989821145
 H          5.0100252398       -1.9637087690       -1.6250417596
 H          6.2014755651       -2.9774046836       -0.8096367568
 H          6.1662866331       -0.9080604536        0.3344060742
 H          5.3787847272       -2.0846420643        1.4002782458
 O          4.3709764915        0.5932674489       -0.0354812607
 C          3.4180072677        1.6080781453       -0.1119516992
 O          3.8257973858        2.6138549519       -0.7189723709
 H         -1.5955471995        2.4149530513        1.1171676804
 C         -1.4068457097        1.9453454043        0.1608060871
 C         -0.1072779181        1.8432661476       -0.3140452309
 C          0.1090991943        1.2006706741       -1.5282556129
 C         -0.9460895397        0.6629104381       -2.2424097147
 C         -2.2384379862        0.7532285727       -1.7555970948
 C         -2.4660012747        1.4002167729       -0.5490328625
 N         -3.7982923415        1.4439639764       -0.0490584122
 S         -4.1293127929        0.1608326649        1.0027208860
 O         -5.5573809874        0.2029107981        1.2311105836
 O         -3.3156126757        0.2552067906        2.1958973042
 C         -3.6966868873       -1.2729948201        0.0488820267
 C         -2.4052067995       -1.7601000956        0.1062162458
 C         -2.0791285286       -2.8602465937       -0.6716754466
 C         -3.0374460104       -3.4462743491       -1.4846460363
 C         -4.3289822237       -2.9433620371       -1.5279545226
 C         -4.6639595521       -1.8431447951       -0.7555086313
 H         -5.6535944769       -1.4165399684       -0.7509248366
 H         -5.0716421082       -3.4025444129       -2.1602397431
 H         -2.7731921313       -4.3014960950       -2.0864659391
 H         -1.0746260801       -3.2522273873       -0.6414397784
 H         -1.6815452497       -1.2777751099        0.7470422495
 H         -3.9900246932        2.2985942544        0.4590548030
 H         -3.0696819111        0.3301287528       -2.2955461276
 H         -0.7600350895        0.1628622851       -3.1803886275
 H          1.1224059220        1.1149511881       -1.8970305739
 C          1.0454871417        2.3962505813        0.4868951620
 H          0.7019025324        2.4608425357        1.5344160514
 C          1.4290988610        3.8011924554        0.0548595241
 C          1.1921042699        4.3203373683       -1.3280230856
 C          0.3719838034        4.8378576946       -0.1863574339
 H          0.5495521470        5.8423826581        0.1664247082
 H         -0.6607679195        4.5269740784       -0.1334367941
 H          1.9503184364        4.9551698038       -1.7592972547
 H          0.7120199188        3.6681974064       -2.0411520219
 H          2.3351325057        4.1404888791        0.5430217395
 O          0.7509151654       -0.0822198801        1.6574251276
