  62
        -98.94190817
 C         -1.2206071812       -1.4148842689        0.7260197392
 C         -1.8040404410       -1.1703267484       -0.5418184008
 C         -2.8032332504       -0.0904295180       -0.5888740207
 C         -3.0503042602        0.6340059620        0.5166308594
 C         -4.0344159397        1.7641105624        0.6010633395
 C         -3.3791494590        3.1152755822        0.2866699797
 C         -2.5374822289        3.1131319420       -0.9889555502
 H         -2.1536856684        4.1254957318       -1.1271136400
 H         -1.6747562892        2.4582275816       -0.8464174602
 C         -3.2971670390        2.6837601825       -2.2515630303
 H         -4.3721130690        2.7633584630       -2.0847986904
 H         -3.0438035686        3.3694314526       -3.0626550602
 C         -2.9647018296        1.2736624025       -2.7420813905
 H         -3.3732567896        1.1587342628       -3.7496919206
 H         -1.8805433397        1.1544162720       -2.8132412604
 C         -3.5204336902        0.1243673926       -1.8921369608
 H         -4.5889048202        0.2753092631       -1.7227899408
 H         -3.3904761906       -0.8008623174       -2.4613242009
 H         -2.7331751990        3.3851078817        1.1241739698
 H         -4.1659564787        3.8674647926        0.2056440698
 H         -4.8507444997        1.5739904429       -0.0935301206
 H         -4.4350082398        1.7921627225        1.6160187294
 O         -2.3973692404        0.4332511715        1.6904986094
 C         -1.4737376109       -0.5902281990        1.8247148493
 O         -0.9480567210       -0.6578213094        2.9543257793
 H          1.3541187793       -0.4761403101        0.4279679096
 C          1.5786141290       -1.2910381800       -0.2441822805
 C          0.8457620284       -2.4671594097       -0.1445142208
 C          1.1305201680       -3.5048298397       -1.0209264909
 C          2.1269244382       -3.3585793400       -1.9706924208
 C          2.8702491787       -2.1953632704       -2.0497456806
 C          2.5922011291       -1.1498257404       -1.1757128304
 N          3.3152236197        0.0514524093       -1.2254602902
 S          3.7007244599        0.8594419989        0.1889434500
 O          4.8711301603        1.6398061484       -0.1534797698
 O          3.8470808794       -0.0522393814        1.2989146399
 C          2.3423918504        1.9775240395        0.4621466601
 C          1.5499771903        1.8517259097        1.5853268300
 C          0.5218360507        2.7593293601        1.7871325400
 C          0.3129494312        3.7787557104        0.8718932802
 C          1.1160447314        3.8911440402       -0.2533930497
 C          2.1398607610        2.9827672297       -0.4634251798
 H          2.7929693111        3.0416223196       -1.3181203497
 H          0.9458613218        4.6833175404       -0.9644174396
 H         -0.4789035885        4.4917742207        1.0386323902
 H         -0.1098020195        2.6543547803        2.6556757000
 H          1.7388535398        1.0504004495        2.2839428399
 H          4.0777175797        0.0639641491       -1.8868631401
 H          3.6544770988       -2.0905549006       -2.7842020105
 H          2.3339477278       -4.1676095600       -2.6549612109
 H          0.5592294476       -4.4174203695       -0.9764567111
 C         -0.2079633117       -2.5277774294        0.9336739391
 H          0.2910342983       -2.2817289698        1.8866789592
 C         -0.8158993624       -3.9103114392        1.1151459888
 C         -2.1891685125       -4.0776759986        1.6927343987
 C         -1.9314208525       -4.4271874585        0.2593314486
 H         -1.9197755930       -5.4717410085       -0.0164098615
 H         -2.3155072922       -3.7766974782       -0.5094104313
 H         -2.3551281629       -4.8772320786        2.3991010185
 H         -2.7521978921       -3.1808059784        1.9080356388
 H         -0.0721796927       -4.6350321595        1.4334680788
 O         -1.5287007212       -1.8202527984       -1.5824452309
