  62
        -98.93750779
 C          1.7750109546        0.9604588566        0.3552192115
 C          2.4171672404        0.3022262850       -0.7208015248
 C          3.5217277959       -0.6003165725       -0.3561510669
 C          3.8261950111       -0.7764833939        0.9424595817
 C          4.9719126551       -1.5947649978        1.4665898440
 C          6.2926103619       -0.8160099669        1.3008249879
 C          7.2815010870       -1.4523534205        0.3239351186
 H          8.0650403307       -0.7175462285        0.1271378391
 H          7.7508359864       -2.3134697222        0.8043375908
 C          6.6935328134       -1.9235108709       -1.0097726501
 H          6.1987901526       -2.8863926335       -0.8734938665
 H          7.5349550866       -2.0993457433       -1.6834051813
 C          5.7121336574       -0.9596444245       -1.6891799729
 H          5.8924071251        0.0652230491       -1.3641338561
 H          5.8973317279       -0.9893462810       -2.7648235150
 C          4.2257157824       -1.3061456590       -1.4817541512
 H          3.6705657035       -1.0195190713       -2.3800682139
 H          4.1158871064       -2.3876397857       -1.3611386606
 H          6.7833196672       -0.7215211808        2.2706883874
 H          6.0533803858        0.1967868716        0.9699446811
 H          4.7763251432       -1.7910602620        2.5210745120
 H          5.0180074456       -2.5445501917        0.9382848948
 O          3.1559746954       -0.1576780710        1.9497799035
 C          2.1178858405        0.7210909862        1.6847227932
 O          1.5815849712        1.2074897284        2.7016673777
 H         -0.4174947052       -0.4043303548        0.7713601298
 C         -0.9179414654       -0.0004708976       -0.1006232948
 C         -0.4942353579        1.2181887054       -0.6174286802
 C         -1.1562833846        1.7326279631       -1.7239570881
 C         -2.1909314005        1.0258391676       -2.3136728329
 C         -2.5938979164       -0.1968604160       -1.8108217562
 C         -1.9513295541       -0.7108545020       -0.6908924709
 N         -2.3642094682       -1.9437942479       -0.1582087331
 S         -4.0070805544       -2.2191036100       -0.0002805902
 O         -4.1305918309       -3.1535912863        1.0966075453
 O         -4.5489397080       -2.6575808677       -1.2623373793
 C         -4.7093874735       -0.6386988036        0.4393372298
 C         -4.2634645376       -0.0272246320        1.5944096502
 C         -4.7741077177        1.2144635723        1.9354083355
 C         -5.7176876620        1.8205090808        1.1197588292
 C         -6.1593658346        1.1912129147       -0.0334862414
 C         -5.6501962175       -0.0499892623       -0.3807043657
 H         -5.9626144962       -0.5733722015       -1.2695666418
 H         -6.8944586556        1.6640350446       -0.6644902762
 H         -6.1101020082        2.7888762169        1.3871507916
 H         -4.4303060312        1.7046932433        2.8322083518
 H         -3.5315493796       -0.5250670319        2.2106845027
 H         -1.8631132089       -2.2210921888        0.6724719335
 H         -3.3847510034       -0.7671421947       -2.2703201900
 H         -2.6880592603        1.4319036713       -3.1811346770
 H         -0.8562266444        2.6830139528       -2.1328942026
 C          0.6396501271        1.9302166369        0.0807808645
 H          0.2764645214        2.2567304342        1.0664101885
 C          1.1540760631        3.1385079574       -0.6734587918
 C          0.4927142104        4.4723522957       -0.5048613346
 C          1.8448704315        4.2257064173        0.0917886349
 H          2.7035703285        4.7050538266       -0.3538890727
 H          1.9201460329        4.1067606089        1.1632176061
 H          0.4249140134        5.1264060879       -1.3610096412
 H         -0.3519200087        4.5309418333        0.1646076883
 H          1.5536383886        2.8812909514       -1.6474902577
 O          2.0864693827        0.4581542725       -1.9247181668
