  62
        -98.94491653
 C          1.9551855445        0.8544791718        0.0729657453
 C          2.2642662036       -0.1068791867        1.0624144115
 C          2.3786013011       -1.4945556947        0.5976650853
 C          2.1521030933       -1.7730338084       -0.6993281005
 C          2.2678689223       -3.1373798008       -1.3147079409
 C          3.6836297525       -3.3902838245       -1.8520838578
 C          4.7912872510       -3.0574208849       -0.8525435569
 H          5.7431867719       -3.3008313871       -1.3291609025
 H          4.7894376200       -1.9811470557       -0.6661077243
 C          4.6833336732       -3.8024783058        0.4851359933
 H          4.0253091445       -4.6652206385        0.3764545482
 H          5.6714393808       -4.1790377932        0.7573502645
 C          4.1985780731       -2.9414976542        1.6530300424
 H          4.3643035080       -3.4984631614        2.5789880870
 H          4.7963679199       -2.0283450786        1.7081378454
 C          2.7172319771       -2.5435926527        1.6194498396
 H          2.0973200327       -3.4317004790        1.4775306154
 H          2.4660434215       -2.1052844397        2.5900820082
 H          3.7582824621       -4.4387749331       -2.1459708937
 H          3.8292128999       -2.7750922958       -2.7428900285
 H          2.0094041968       -3.8870967028       -0.5691177321
 H          1.5548226687       -3.1995221673       -2.1387332050
 O          1.8388912653       -0.8253420139       -1.6191411011
 C          1.7213864456        0.5069784007       -1.2577222172
 O          1.4256339154        1.2715797256       -2.1965695420
 O          2.4352274863        0.1835870120        2.2790218317
 C          1.7747585504        2.3046348317        0.4825061432
 C          0.3726561775        2.7510736035        0.1464155381
 C          0.0754572437        3.9812375169       -0.4254808043
 C         -1.2322803837        4.3072417725       -0.7420459354
 C         -2.2627539329        3.4161193868       -0.5084771292
 C         -1.9776337276        2.1904127169        0.0838858693
 C         -0.6727010748        1.8790913243        0.4241236867
 H         -0.4642438017        0.9222129873        0.8820290244
 N         -3.0007328676        1.2655648412        0.3614729347
 S         -2.6386143698       -0.3797646597        0.2330241050
 O         -2.0203961414       -0.8157762870        1.4613031702
 O         -1.9085392731       -0.6473922089       -0.9858530701
 C         -4.2882836932       -1.0507988272        0.1291706814
 C         -4.8107895041       -1.3839832795       -1.1060088050
 C         -6.1069486239       -1.8706114771       -1.1766072751
 C         -6.8554028422       -2.0110969607       -0.0176830264
 C         -6.3171090183       -1.6728854457        1.2151940487
 C         -5.0214574593       -1.1874227878        1.2929913487
 H         -4.5562479977       -0.9198931376        2.2273029080
 H         -6.9008540836       -1.7860681323        2.1143415741
 H         -7.8637762058       -2.3891911358       -0.0756794760
 H         -6.5263016355       -2.1371373030       -2.1333326301
 H         -4.1875967873       -1.2638617231       -1.9779076873
 H         -3.8646605123        1.4879925087       -0.1150909843
 H         -3.2779506360        3.6623792978       -0.7800923631
 H         -1.4489732044        5.2631051231       -1.1944121962
 H          0.8690702846        4.6789564793       -0.6371406749
 H          1.8886654723        2.3171530747        1.5774395872
 C          2.8514289160        3.1745665537       -0.1319424210
 C          3.3269807464        4.4069249267        0.5764112964
 C          4.2093409776        3.1984460049        0.5012883195
 H          5.0769618566        3.2287240245       -0.1405054555
 H          4.3472807242        2.6068112605        1.3946880225
 H          3.5932500046        5.2703726433       -0.0142960824
 H          2.8732308981        4.6428861167        1.5270388302
 H          2.8028823051        3.1881662212       -1.2151531071
