  62
        -98.94093710
 C         -1.8272246391       -1.3394479191        0.6333707765
 C         -1.8052415074       -0.0098035235        1.1289972618
 C         -3.0389083634        0.7664864611        0.9710580930
 C         -4.1243611204        0.1835400308        0.4312519226
 C         -5.4762459103        0.8200163818        0.2524440627
 C         -5.6146691673        1.6518962988       -1.0297269964
 C         -4.8546115911        2.9785756419       -1.0267300702
 H         -5.2069295468        3.5518130912       -1.8865743225
 H         -5.1150039047        3.5429447128       -0.1307526278
 C         -3.3298413299        2.8304688132       -1.1217428791
 H         -3.0829445317        1.8250124894       -1.4705680659
 H         -2.9415110163        3.5300248001       -1.8651871162
 C         -2.5805783975        3.0971413859        0.1838331395
 H         -2.7048588588        4.1436970331        0.4706569493
 H         -1.5182730894        2.9168046766        0.0021696494
 C         -3.0195915391        2.2138015140        1.3596330544
 H         -2.2964369797        2.3303925333        2.1707224832
 H         -3.9998401716        2.5256999438        1.7198602182
 H         -5.2860329349        1.0452196963       -1.8767407310
 H         -6.6774104513        1.8650889617       -1.1664913104
 H         -6.2004786924        0.0034014724        0.2123692475
 H         -5.7034259568        1.4431381833        1.1180610825
 O         -4.1176578640       -1.1023323343       -0.0042492362
 C         -2.9639050148       -1.8822606734        0.0328071221
 O         -3.1105119656       -3.0047280612       -0.4828438548
 O         -0.7971884235        0.4996243955        1.6866379760
 C         -0.5282630450       -2.1153728255        0.7566284184
 C          0.3924460939       -1.7712783501       -0.3872980178
 C         -0.0671995760       -1.7624323390       -1.7006838580
 C          0.7874741740       -1.4380660742       -2.7377657182
 C          2.1071101589       -1.1050071368       -2.4854598395
 C          2.5774475326       -1.1115609016       -1.1772670393
 C          1.7183159134       -1.4504720236       -0.1395110368
 H          2.0969695968       -1.4561015328        0.8709363220
 N          3.9185060253       -0.8080353219       -0.9029859738
 S          4.3667976150        0.1228257439        0.4129386915
 O          5.7648871526        0.4090295857        0.1787968651
 O          4.0557881222       -0.5724786806        1.6352219422
 C          3.4195470611        1.6263798276        0.2739854959
 C          2.1971866464        1.7398023794        0.9029703280
 C          1.4712493269        2.9099924009        0.7457056221
 C          1.9700466516        3.9385063081       -0.0370162952
 C          3.2014185817        3.8089983326       -0.6631568646
 C          3.9329690951        2.6434341564       -0.5091842221
 H          4.9002803268        2.5082235967       -0.9655264280
 H          3.5908109479        4.6116968621       -1.2686030521
 H          1.3978846988        4.8452234012       -0.1563240890
 H          0.5151530821        2.9905072170        1.2379495683
 H          1.8090249414        0.9331935441        1.5025985952
 H          4.4661870195       -0.5635594994       -1.7151705412
 H          2.7709357097       -0.8473680708       -3.2964494202
 H          0.4215892268       -1.4386125714       -3.7535008686
 H         -1.0980277053       -2.0202424462       -1.8964773699
 H         -0.0544979397       -1.7367833859        1.6776262341
 C         -0.7122262423       -3.6149069656        0.9325560473
 C         -0.3722339362       -4.6158629990       -0.1262702045
 C          0.4884218221       -4.4998684207        1.0937891969
 H          0.4542944689       -5.2878916889        1.8308438323
 H          1.4614359985       -4.0447758070        0.9796999953
 H         -1.0202959793       -5.4725418949       -0.2293579620
 H          0.0209886427       -4.2543353961       -1.0633764507
 H         -1.5727380291       -3.8474481343        1.5511272284
