  62
        -98.94562003
 C         -1.3562775404       -1.6133533067       -0.0910403306
 C         -2.6045012030       -1.1805488646        0.4205366148
 C         -3.1740301970        0.0242377723       -0.1915593405
 C         -2.4983550982        0.6577450631       -1.1662566774
 C         -2.9306503762        1.9123322266       -1.8751711676
 C         -2.5837664502        3.1969610934       -1.1093524595
 C         -3.4622965914        3.4816792752        0.1094095832
 H         -3.2772336151        4.5174022663        0.4015632649
 H         -4.5137326625        3.4032874514       -0.1707331428
 C         -3.1770285940        2.5762740811        1.3159885952
 H         -2.1907027627        2.1177084458        1.2040606056
 H         -3.1337384409        3.1850742732        2.2227910338
 C         -4.2226203905        1.4863664269        1.5564338263
 H         -5.1742722475        1.9484001065        1.8306968242
 H         -3.8893043341        0.8759739153        2.3998284451
 C         -4.4619712137        0.5539780242        0.3621547532
 H         -5.0505082963       -0.2992407431        0.7094936724
 H         -5.0236108987        1.0742506566       -0.4137341370
 H         -2.6813589585        4.0323774222       -1.8069542505
 H         -1.5396820750        3.1483717534       -0.7878441035
 H         -4.0037987956        1.8792685822       -2.0658028730
 H         -2.4071489757        1.9276565650       -2.8336572523
 O         -1.3086283523        0.2068120009       -1.6396749800
 C         -0.6865595453       -0.9086618306       -1.0925441669
 O          0.4276068639       -1.1556562034       -1.5897747902
 O         -3.2100301119       -1.7703017606        1.3565111128
 C         -0.6754731910       -2.7841177564        0.5952214736
 C          0.7520716173       -2.4121660372        0.9159599685
 C          1.8426826428       -3.2437354395        0.6991792666
 C          3.1240396291       -2.8130372967        0.9997001769
 C          3.3489152796       -1.5408071492        1.4914332854
 C          2.2631081092       -0.7014994375        1.7116913181
 C          0.9809223267       -1.1530228546        1.4581124973
 H          0.1499392701       -0.4879225830        1.6439440739
 N          2.4296515568        0.6185235773        2.1809831761
 S          1.8263408868        1.8513157607        1.2222890492
 O          2.3953154282        3.0573380681        1.7915628882
 O          0.3874908456        1.7991596700        1.1788993388
 C          2.5140040109        1.6050808038       -0.4053373520
 C          1.6847861714        1.6291112269       -1.5052498723
 C          2.2331610205        1.4499698025       -2.7651562124
 C          3.5964838407        1.2489092245       -2.9019982704
 C          4.4210468650        1.2378771990       -1.7871096436
 C          3.8778588165        1.4205432269       -0.5268640692
 H          4.4979051838        1.4329626671        0.3549018124
 H          5.4827711135        1.0855927308       -1.8969431847
 H          4.0186883361        1.1014076573       -3.8835871933
 H          1.5878889934        1.4563580984       -3.6288385283
 H          0.6264434999        1.7715606958       -1.3606855834
 H          3.3749740593        0.8387813381        2.4620741816
 H          4.3509837183       -1.1980824906        1.7003005949
 H          3.9615432620       -3.4714040480        0.8264790227
 H          1.6954323590       -4.2241649229        0.2771574209
 H         -1.2191736748       -2.8916244342        1.5498692623
 C         -0.8100331404       -4.1148936430       -0.1307604492
 C         -1.8683282263       -4.3287137789       -1.1703842650
 C         -0.4262514003       -4.2727287608       -1.5706733614
 H          0.0550048877       -5.1903418839       -1.8758670783
 H         -0.0691877597       -3.3948217273       -2.0852234429
 H         -2.3763998915       -5.2812806712       -1.1944485597
 H         -2.5015103780       -3.4897501376       -1.4210439821
 H         -0.6100237808       -4.9588879228        0.5221741017
