  62
        -98.93958264
 C         -2.4776827826       -1.0486777343        0.3702852149
 C         -2.4887710462        0.1417014255        1.1447121168
 C         -3.6239560096        1.0496253039        0.9378721484
 C         -4.5863015917        0.7054186193        0.0631203296
 C         -5.7799135234        1.5480859383       -0.2795985445
 C         -5.4906520158        2.4616799641       -1.4785663873
 C         -4.1820871787        3.2426804305       -1.3575473178
 H         -3.3434142975        2.5426015748       -1.3832105627
 H         -4.0978108672        3.8762681207       -2.2431242138
 C         -4.0758018305        4.1111309785       -0.0962063758
 H         -5.0667629516        4.2664520940        0.3318384261
 H         -3.6861579415        5.0915903739       -0.3778160410
 C         -3.1419476755        3.5551618512        0.9809078670
 H         -2.1730813688        3.3080951128        0.5378181573
 H         -2.9697875859        4.3416397912        1.7208153153
 C         -3.6535740231        2.3221092469        1.7366668782
 H         -2.9884425148        2.1558680395        2.5893206843
 H         -4.6588802446        2.5147707125        2.1173491845
 H         -6.3231139573        3.1586479177       -1.5900758120
 H         -5.4388812713        1.8454982448       -2.3789507864
 H         -6.6077648101        0.8834049630       -0.5317051339
 H         -6.0561222274        2.1447805765        0.5875067471
 O         -4.5540300147       -0.4479378966       -0.6469327155
 C         -3.5027553335       -1.3467247704       -0.5284734196
 O         -3.6247097781       -2.3442379248       -1.2653143736
 H          1.2079309163       -1.0311353783        0.8301571847
 C          0.9912707083       -1.3314337194       -0.1842254751
 C         -0.2626219299       -1.8330077081       -0.5044152224
 C         -0.5243252628       -2.1946591595       -1.8221284281
 C          0.4507097203       -2.0493579693       -2.7916557922
 C          1.6982469683       -1.5447908499       -2.4701258030
 C          1.9723802110       -1.1855706266       -1.1553377654
 N          3.2499944569       -0.7187874502       -0.8003311083
 S          3.4083598735        0.4456144266        0.4114896223
 O          3.2374525790       -0.1901431745        1.6931862768
 O          2.5567961426        1.5797256750        0.1283596544
 C          5.1231155098        0.8823499947        0.1901604505
 C          5.4560894462        2.0574066619       -0.4559432997
 C          6.7953199104        2.3649782708       -0.6400079879
 C          7.7728856913        1.4955417764       -0.1805006377
 C          7.4231269712        0.3196918990        0.4671299211
 C          6.0865257822        0.0072537561        0.6560640136
 H          5.7670546761       -0.8890844117        1.1614371944
 H          8.1858884754       -0.3526142755        0.8253941166
 H          8.8139861581        1.7370771459       -0.3254583859
 H          7.0700799078        3.2798288485       -1.1398439774
 H          4.6618712939        2.7058201286       -0.7896773074
 H          3.8092192510       -0.4755579349       -1.6072855840
 H          2.4566140123       -1.4329234056       -3.2302370568
 H          0.2348883616       -2.3285200071       -3.8120393037
 H         -1.5017161882       -2.5722700260       -2.0792285998
 C         -1.3015481577       -1.9872168961        0.5814083450
 H         -0.8409197185       -1.6560160296        1.5228501409
 C         -1.7061724922       -3.4408275167        0.7347207739
 C         -0.7605045649       -4.3837791422        1.4135854431
 C         -2.0286398945       -3.9713003260        2.0976596901
 H         -2.8245529645       -4.6944438267        2.1930949082
 H         -1.9596224731       -3.2852852284        2.9297124999
 H          0.1695555779       -3.9766222692        1.7819931097
 H         -0.6826533951       -5.3929669587        1.0397448907
 H         -2.2875671629       -3.8178407032       -0.0960892206
 O         -1.5920091194        0.4257403212        1.9856522170
