  62
        -98.94172740
 C         -0.6892419702       -1.3787125657        0.0720415817
 C         -1.4181159353       -0.7917286131        1.1297823010
 C         -2.3869068741        0.2552033038        0.7589455823
 C         -2.4941732246        0.6140353925       -0.5327854616
 C         -3.4824669296        1.5660800755       -1.1492385244
 C         -4.7434810987        0.8149045484       -1.6122716364
 C         -5.8374106773        0.6737543902       -0.5550864369
 H         -6.2819079481        1.6527204998       -0.3641399818
 H         -6.6178185096        0.0366287915       -0.9774595405
 C         -5.3827190911        0.0738197701        0.7774007247
 H         -6.2656571364       -0.3102094409        1.2921092269
 H         -4.7223354123       -0.7754569960        0.5919114645
 C         -4.6778546709        1.0901614573        1.6876630879
 H         -4.8297655678        2.0936764912        1.2914303716
 H         -5.1410769934        1.0747888909        2.6766058562
 C         -3.1799117339        0.8350250785        1.8989774534
 H         -3.0468215491        0.1223664632        2.7195383290
 H         -2.6999031318        1.7655069114        2.2219556424
 H         -5.1695074000        1.3423958649       -2.4680060984
 H         -4.4373085051       -0.1753833918       -1.9587489233
 H         -3.7365718150        2.3684825327       -0.4638489958
 H         -2.9928290076        1.9886606551       -2.0277691125
 O         -1.7159050866        0.0729208838       -1.5102687919
 C         -0.8094054233       -0.9370355192       -1.2450852426
 O         -0.1865235871       -1.3481698096       -2.2416964028
 O         -1.2839041813       -1.1429270011        2.3350499965
 C          0.2564243505       -2.5250933057        0.3709837617
 C          1.6591059085       -2.2207633066       -0.0927584173
 C          2.4871362247       -3.1779573647       -0.6657829442
 C          3.7764913252       -2.8500701138       -1.0468497268
 C          4.2677518660       -1.5720674984       -0.8598096416
 C          3.4479816897       -0.6066476407       -0.2838418892
 C          2.1573074548       -0.9377658977        0.0947478545
 H          1.5273242184       -0.1888265348        0.5522861558
 N          3.9088531438        0.7019892777       -0.1153166285
 S          3.1939900993        1.8068964041        0.8967480020
 O          4.1474275839        2.8956197691        0.9500622205
 O          2.8327139170        1.2306243610        2.1710408960
 C          1.7501338364        2.3662484077        0.0208493143
 C          0.5725779143        2.5701253586        0.7107130480
 C         -0.5154347870        3.1011108395        0.0371023917
 C         -0.4094692758        3.4106566477       -1.3093354637
 C          0.7745516948        3.1828079803       -1.9927874570
 C          1.8689436688        2.6621990081       -1.3222826339
 H          2.8078813455        2.4832210703       -1.8192451823
 H          0.8491777849        3.4136160828       -3.0432741438
 H         -1.2550716765        3.8339824775       -1.8276782968
 H         -1.4381312071        3.2737695171        0.5667992185
 H          0.5268761305        2.3041516750        1.7558456890
 H          4.8878449866        0.8669130700       -0.2881627651
 H          5.2728359059       -1.3168299102       -1.1580847486
 H          4.4087776989       -3.6019641409       -1.4940824183
 H          2.1232003410       -4.1810043586       -0.8159576911
 H          0.2761408012       -2.6122502095        1.4685517616
 C         -0.2996874715       -3.8108725868       -0.2093445740
 C         -0.0695105400       -5.1220940956        0.4790362107
 C         -1.4294212189       -4.4936032309        0.4997879387
 H         -2.2159231683       -4.9398321485       -0.0902106193
 H         -1.7744300740       -4.0484687901        1.4218533028
 H          0.0755392995       -6.0043490278       -0.1261966813
 H          0.5045859818       -5.1134391454        1.3933417118
 H         -0.3251573865       -3.7972299274       -1.2935193038
