  62
        -98.94393580
 C         -1.7744693971       -0.4748785693       -0.4074587627
 C         -3.0163061620       -1.0455005527       -0.7753830064
 C         -4.1340879577       -0.7913569402        0.1401485758
 C         -3.9293046417       -0.0738255368        1.2599643572
 C         -4.9629539220        0.2501501599        2.3043407779
 C         -5.8261679607        1.4743875060        1.9697701094
 C         -6.8554358976        1.2611517798        0.8590652032
 H         -7.4499081139        0.3743887912        1.0814288807
 H         -7.5307760872        2.1188494561        0.8794675408
 C         -6.2535753941        1.1407131886       -0.5479982972
 H         -5.2315613714        1.5263706014       -0.5414412260
 H         -6.8249896744        1.7605242097       -1.2426394248
 C         -6.2421702256       -0.2796173066       -1.1132148884
 H         -7.2682109847       -0.6287679709       -1.2491018293
 H         -5.7630293930       -0.2538977201       -2.0952716909
 C         -5.4907129302       -1.2982047173       -0.2461219059
 H         -6.0748249676       -1.5399178126        0.6417406350
 H         -5.3506864548       -2.2102763351       -0.8318149563
 H         -6.3597944282        1.7550226237        2.8808000578
 H         -5.1676265386        2.3037837695        1.7019082743
 H         -4.4175099365        0.4557417848        3.2279883528
 H         -5.6053115781       -0.6159628492        2.4665220839
 O         -2.7146122254        0.4388824566        1.5897560965
 C         -1.6130858219        0.2698076874        0.7613177032
 O         -0.5741327867        0.8146059172        1.1751398532
 O         -3.1795817694       -1.7388766399       -1.8156967527
 C         -0.5821253693       -0.6721098943       -1.3225189546
 C          0.5627386510       -1.3548460397       -0.6146431589
 C          0.3133839489       -2.3012163262        0.3746893714
 C          1.3513564437       -2.9213909020        1.0446404470
 C          2.6667341721       -2.6249614294        0.7328441032
 C          2.9280191949       -1.7047610028       -0.2711282942
 C          1.8835374034       -1.0771864290       -0.9387258551
 H          2.1083697969       -0.3592431324       -1.7127647483
 N          4.2743358763       -1.4035762956       -0.5848067277
 S          5.0669763146       -0.4232480909        0.5218877601
 O          6.4156776725       -0.2727590457        0.0249546989
 O          4.9240746660       -0.9990900788        1.8333133451
 C          4.2054728002        1.1341367920        0.4101266651
 C          2.9592592560        1.2461863740        0.9931525249
 C          2.2350062776        2.4136829171        0.8091375910
 C          2.7712663683        3.4458876820        0.0547860997
 C          4.0297436091        3.3224503029       -0.5161964223
 C          4.7514397778        2.1521728825       -0.3478371564
 H          5.7281475089        2.0084617130       -0.7813225221
 H          4.4438535413        4.1301268779       -1.0983452135
 H          2.2020326425        4.3510564612       -0.0896121275
 H          1.2471404752        2.4825282064        1.2367128285
 H          2.5584570544        0.4321702732        1.5751792308
 H          4.3872348515       -1.0050117998       -1.5075074015
 H          3.4891045562       -3.0799870582        1.2598524683
 H          1.1343548387       -3.6424821877        1.8184198378
 H         -0.7113930947       -2.5393511513        0.6251648989
 H         -0.9377773335       -1.3421272094       -2.1205798393
 C         -0.1787389122        0.6528998280       -1.9412736722
 C          0.3303916910        0.7192350423       -3.3496758411
 C         -1.0371165272        1.2364483248       -3.0217996109
 H         -1.2045687200        2.3028498839       -3.0300659949
 H         -1.8924251804        0.6579783946       -3.3398176157
 H          1.1033659815        1.4356546005       -3.5850998164
 H          0.3984689572       -0.2049158067       -3.9040354566
 H          0.2432798626        1.3365514011       -1.2127769231
