  62
        -98.94495696
 C          1.8738526749        0.7335963968       -0.1614812105
 C          2.4286334503        0.0827682782        0.9657460252
 C          3.4959840894       -0.8873134257        0.6886114022
 C          3.8482776614       -1.1294443025       -0.5875070667
 C          4.9527124607       -2.0534470824       -1.0101062698
 C          6.2869778353       -1.3041407034       -1.1327616698
 C          6.6234124837       -0.4382903868        0.0813701623
 H          7.5986064071        0.0168352743       -0.1043959495
 H          5.8973344572        0.3748331972        0.1512660698
 C          6.6601488119       -1.1999675870        1.4136809335
 H          6.7524883380       -2.2704263163        1.2262966059
 H          7.5477773360       -0.8908029925        1.9696022080
 C          5.4556090047       -0.9467449804        2.3220013563
 H          5.6839654746       -1.3533174523        3.3108362541
 H          5.3042931959        0.1294254893        2.4376782763
 C          4.1321932315       -1.5732110217        1.8649883946
 H          3.4184268927       -1.4791050385        2.6888803906
 H          4.2796159460       -2.6355592365        1.6592065617
 H          7.0804242334       -2.0368300206       -1.2909771414
 H          6.2409255460       -0.6578135919       -2.0122900692
 H          4.6931572814       -2.4773635359       -1.9817263022
 H          5.0426401202       -2.8605571449       -0.2854693422
 O          3.2600333888       -0.5194727816       -1.6476814076
 C          2.2639314801        0.4300920037       -1.4662012791
 O          1.8166398658        0.9132699399       -2.5224440631
 O          2.0426939138        0.2972595025        2.1473174869
 C          0.7814561880        1.7658543055        0.0516241087
 C         -0.5004785733        1.3075950728       -0.5995602311
 C         -1.2851671726        2.1201994678       -1.4063969753
 C         -2.4486202623        1.6299807234       -1.9757199744
 C         -2.8595755354        0.3305592115       -1.7464028221
 C         -2.0924056420       -0.4846574432       -0.9227085348
 C         -0.9300940304        0.0089090349       -0.3519089093
 H         -0.3333355042       -0.6293716319        0.2880873245
 N         -2.5104488817       -1.8012769079       -0.6660710961
 S         -4.1244188939       -2.0529770124       -0.3026082894
 O         -4.1466256176       -3.2442977018        0.5170657100
 O         -4.8925829281       -2.1153658095       -1.5210927605
 C         -4.6188872236       -0.6268154420        0.6489920908
 C         -5.6222914062        0.1983751955        0.1839302228
 C         -5.9675048963        1.3172068820        0.9251642888
 C         -5.3033069215        1.5921268967        2.1101900818
 C         -4.2992795027        0.7513076195        2.5660769218
 C         -3.9517215531       -0.3697800870        1.8304377085
 H         -3.1779200815       -1.0443944615        2.1610485935
 H         -3.7825688717        0.9660079495        3.4878307746
 H         -5.5685490178        2.4659532011        2.6840582806
 H         -6.7491789475        1.9714204308        0.5743765472
 H         -6.1099661104       -0.0512279529       -0.7442330107
 H         -1.9069862713       -2.3100002968       -0.0374191936
 H         -3.7520455207       -0.0709646894       -2.1981888108
 H         -3.0416254486        2.2690046124       -2.6117581453
 H         -0.9812726349        3.1353287372       -1.6003766604
 H          0.6171938765        1.7934490794        1.1393375034
 C          1.2437598826        3.1331664055       -0.4050985898
 C          0.6958383307        4.3697690224        0.2404168787
 C          2.1075065775        3.9464475933        0.5103953403
 H          2.9131455137        4.5236146119        0.0818874865
 H          2.3406769921        3.5245193892        1.4773043732
 H          0.5333198330        5.2429294249       -0.3731274962
 H         -0.0298943461        4.2420840197        1.0290407399
 H          1.4717566387        3.1630794177       -1.4645671860
