  62
        -98.93724570
 C          2.4389591996        0.3820227216        0.5420700305
 C          2.1673236602       -0.3638767485       -0.6270906096
 C          1.8369284609       -1.7881690087       -0.4403623797
 C          1.7867207510       -2.2881913188        0.8069940402
 C          1.4401195717       -3.6889263790        1.2435668301
 C          0.1862472921       -4.2979477697        0.5955517499
 C          0.5002293229       -5.4496805695       -0.3609173202
 H          1.2971575331       -6.0550755290        0.0759547299
 H         -0.3843029767       -6.0846942099       -0.4451814203
 C          0.9021366729       -5.0263422592       -1.7724008201
 H          0.0250914428       -4.6379217596       -2.2944782102
 H          1.2308052335       -5.9218072489       -2.3052124701
 C          2.0101804724       -3.9740809785       -1.8517619498
 H          2.7842906823       -4.1742134682       -1.1122379197
 H          2.4785391626       -4.0585803782       -2.8347513697
 C          1.5040479315       -2.5318222388       -1.7045713398
 H          1.9227010214       -1.9120697786       -2.5042282797
 H          0.4179645115       -2.4917042894       -1.8382872300
 H         -0.3780263682       -3.5165683600        0.0856081598
 H         -0.4501564578       -4.6829930401        1.3942905697
 H          2.3024177620       -4.3370731086        1.0701133502
 H          1.3067404814       -3.6250730292        2.3258490801
 O          2.0825821004       -1.5355598987        1.9073173103
 C          2.3857649197       -0.1906042686        1.8096854305
 O          2.5912485092        0.3757250315        2.9042108505
 H          0.1148771790        1.3182801703        0.8558819802
 C          0.2273863987        2.0730424704        0.0902663802
 C          1.4986970686        2.5114549611       -0.2585390995
 C          1.6171063782        3.4956371912       -1.2307835695
 C          0.4890012280        3.9936624506       -1.8604750396
 C         -0.7697437718        3.5164146499       -1.5464229299
 C         -0.8998776314        2.5468391098       -0.5574090900
 N         -2.1658979412        2.0556049391       -0.1897983602
 S         -2.3022342604        0.4536471790        0.3257673197
 O         -1.8775335006        0.3668331791        1.7016465598
 O         -1.6560976098       -0.4442453306       -0.6052622203
 C         -4.0746885603        0.2704975180        0.2421046294
 C         -4.8378947308        0.8646278876        1.2298297393
 C         -6.2183469707        0.7683085168        1.1594272490
 C         -6.8100116002        0.0834156266        0.1080703089
 C         -6.0314272897       -0.5099595530       -0.8739493810
 C         -4.6495802998       -0.4153957122       -0.8104609908
 H         -4.0032521594       -0.8630555518       -1.5483875607
 H         -6.4937330593       -1.0442976532       -1.6881477211
 H         -7.8847206901        0.0099320660        0.0554304087
 H         -6.8263286711        1.2268307064        1.9224750389
 H         -4.3316602212        1.3782006178        2.0305008894
 H         -2.8810194712        2.2793439287       -0.8690557603
 H         -1.6446135719        3.8867319295       -2.0588130500
 H          0.5945868278        4.7515751607       -2.6218710496
 H          2.5927647980        3.8605372517       -1.5073233293
 C          2.6788303788        1.8772738117        0.4395702306
 H          2.7139806584        2.2529400616        1.4733742707
 C          4.0050243687        2.1645907324       -0.2326453091
 C          4.7810326180        3.3968742028        0.1207095511
 C          5.2614611587        2.0525855931        0.5756876811
 H          6.1386892790        1.6303095536        0.1092805712
 H          5.1540327686        1.7934523230        1.6192224211
 H          5.3343538979        3.8988720332       -0.6585464688
 H          4.3577753475        4.0588412426        0.8610246611
 H          4.0338867791        1.8121159525       -1.2572453791
 O          2.1976403601        0.1373210415       -1.7828115795
