  62
        -98.94094874
 C          1.7405222354       -0.9499615840       -0.3177286624
 C          2.1582426009        0.4009406717       -0.4085126014
 C          3.6063956605        0.6121747420       -0.5774636072
 C          4.4263618806       -0.4483052772       -0.6812530609
 C          5.9205119145       -0.3735087904       -0.7991307051
 C          6.5895191790       -0.4122488098        0.5819815247
 C          5.9898659269        0.5707563907        1.5875487547
 H          4.9636551263        0.2710292975        1.8123036571
 H          6.5608940863        0.4780885926        2.5139409730
 C          5.9981798971        2.0348114714        1.1262694207
 H          6.7091551037        2.1622491688        0.3091503596
 H          6.3395125714        2.6606441995        1.9535649726
 C          4.6317591404        2.5721123297        0.6961348569
 H          4.7080458496        3.6586628107        0.6009297330
 H          3.8943755051        2.3652420522        1.4762754504
 C          4.0908605973        2.0336287761       -0.6345227595
 H          3.2185946824        2.6355333190       -0.9069744999
 H          4.8469308149        2.1525976556       -1.4133397468
 H          6.4880587549       -1.4213712924        0.9880421814
 H          7.6532086179       -0.2024216963        0.4560733571
 H          6.2623690321       -1.2297972620       -1.3829815112
 H          6.1930945965        0.5417913563       -1.3208650609
 O          3.9813283434       -1.7301949490       -0.6479263817
 C          2.6378232137       -2.0118844071       -0.4643325409
 O          2.3679153158       -3.2291443526       -0.4606485279
 O          1.3806136700        1.3881739492       -0.3541017811
 C          0.2830644507       -1.3293279297       -0.1162926074
 C         -0.6076018727       -0.4993710495       -1.0065772301
 C         -0.4921754044       -0.6432869980       -2.3871977823
 C         -1.2844708482        0.0956494851       -3.2433671178
 C         -2.2270280858        0.9765885283       -2.7416492490
 C         -2.3490919371        1.1279740098       -1.3662954091
 C         -1.5422499814        0.3931002470       -0.5077172166
 H         -1.6242449275        0.5677597134        0.5512398363
 N         -3.2927625994        2.0116363364       -0.8255029332
 S         -4.0630178065        1.6449048325        0.6066262786
 O         -5.3110810345        2.3759972285        0.5404624573
 O         -3.2223605879        1.9482502439        1.7368950160
 C         -4.3825805876       -0.1103408205        0.5386251575
 C         -5.0728426724       -0.6137288239       -0.5463029362
 C         -5.3151705140       -1.9759222298       -0.6136698595
 C         -4.8678820064       -2.8084482284        0.4008651893
 C         -4.1849233772       -2.2871859094        1.4884771740
 C         -3.9381484811       -0.9252202647        1.5593861380
 H         -3.4067968278       -0.4783254647        2.3847505321
 H         -3.8402514169       -2.9357851641        2.2783690113
 H         -5.0529342428       -3.8695476796        0.3449468565
 H         -5.8487449652       -2.3846202221       -1.4565683724
 H         -5.4148973385        0.0592072441       -1.3154661604
 H         -3.9068701510        2.4527783452       -1.4930946449
 H         -2.8495365544        1.5539995800       -3.4080375978
 H         -1.1751412883       -0.0193129014       -4.3112714755
 H          0.2416176962       -1.3349711268       -2.7789016806
 H          0.2144432624       -2.3755073230       -0.4576908960
 C         -0.1654176340       -1.3186083335        1.3373963923
 C          0.7900247509       -1.6271908245        2.4499002488
 C          0.2439039339       -0.2410227604        2.2938385985
 H         -0.4830038914        0.1166974933        3.0093104787
 H          0.8964724730        0.5340342701        1.9235422362
 H          0.4405072629       -2.2302472590        3.2742685818
 H          1.8236632258       -1.8030172954        2.1887921522
 H         -1.1728640375       -1.7087468085        1.4469557849
