  62
        -98.94125931
 C          2.5240869654       -0.2858414922        0.0192881566
 C          2.1122922348       -1.2516208813        0.9641625667
 C          1.4166823169       -2.4414638387        0.4424290394
 C          1.2278833493       -2.5611893137       -0.8851193747
 C          0.5894066731       -3.6557490071       -1.7161654036
 C         -0.1089477650       -4.8322755923       -1.0423084590
 C         -1.4516878377       -4.4827354429       -0.3961993059
 H         -2.1898219602       -4.3541961768       -1.1916321481
 H         -1.7700215619       -5.3243471658        0.2224238550
 C         -1.4722640815       -3.2097562062        0.4471024597
 H         -2.5048176125       -3.0251460881        0.7592309110
 H         -1.1737512766       -2.3504549142       -0.1576954962
 C         -0.6166499527       -3.2412289675        1.7110252140
 H         -0.9498383942       -4.0516265577        2.3639174251
 H         -0.7822943570       -2.2937536657        2.2332641714
 C          0.8936145318       -3.3933464290        1.4804125618
 H          1.4040695856       -3.1353282201        2.4136333088
 H          1.1508906107       -4.4219379698        1.2397229238
 H         -0.3024164079       -5.5728772943       -1.8229132028
 H          0.5609564284       -5.2991203199       -0.3259536999
 H         -0.1161483580       -3.1504475579       -2.3837528905
 H          1.3927921441       -4.0429443423       -2.3525995641
 O          1.6824210356       -1.6195651498       -1.7637499090
 C          2.2717006065       -0.4424942745       -1.3417702824
 O          2.5426137904        0.3542189705       -2.2617374001
 O          2.3180505618       -1.1256549640        2.2036972500
 C          3.1005328972        1.0318898754        0.5097341890
 C          2.1089435014        2.1176166855        0.1656377794
 C          2.4355619704        3.3053708978       -0.4739424563
 C          1.4402794047        4.2003109674       -0.8310013732
 C          0.1088227135        3.9228828663       -0.5821162934
 C         -0.2247454361        2.7457472449        0.0797434074
 C          0.7761506317        1.8766783314        0.4747616346
 H          0.5059203500        0.9679876842        0.9931778003
 N         -1.5617418931        2.4114105593        0.3612715869
 S         -1.9567880708        0.7643967648        0.3234047074
 O         -1.6811199040        0.2007943457        1.6207368136
 O         -1.3371705895        0.1247283283       -0.8149433156
 C         -3.7224023566        0.8647420019        0.0911619866
 C         -4.5183240612        1.1495688582        1.1848729369
 C         -5.8877629963        1.2624542804        1.0055676661
 C         -6.4359326054        1.0890264909       -0.2568218762
 C         -5.6252296596        0.7997154211       -1.3440393774
 C         -4.2542255708        0.6878119433       -1.1717717640
 H         -3.5840426919        0.4578311649       -1.9848158612
 H         -6.0538128456        0.6604912610       -2.3234473537
 H         -7.5021143980        1.1763731398       -0.3937798638
 H         -6.5212703442        1.4841744320        1.8491230470
 H         -4.0470184151        1.2653056834        2.1468848068
 H         -2.2237363023        2.9667287163       -0.1638369695
 H         -0.6658081177        4.6053407168       -0.8972840880
 H          1.7053468455        5.1171780160       -1.3355724735
 H          3.4644253896        3.5221517372       -0.7104890916
 H          3.1531729748        0.9415293789        1.6051693477
 C          4.4909431247        1.2743627274       -0.0335673250
 C          5.4552508153        2.1341929769        0.7264056807
 C          5.6615084848        0.6515486206        0.6643027092
 H          6.4721908088        0.2657767117        0.0648475335
 H          5.4562897288        0.0670335237        1.5493247405
 H          6.1298357027        2.7675139816        0.1705381383
 H          5.1164958936        2.5590915042        1.6591490080
 H          4.5132478246        1.3079497587       -1.1167705082
