  62
        -98.94049006
 C          1.8377563897        0.7140193247        0.7418086677
 C          2.0999055903       -0.5310164474        0.1158840567
 C          3.5048144095       -0.9683037490        0.1318179552
 C          4.4376833026       -0.2299037669        0.7567314460
 C          5.9033415506       -0.5520956992        0.8621047816
 C          6.7249958217       -0.1149362376       -0.3584955913
 C          6.5146909266       -0.9535185684       -1.6200525905
 H          7.3033094105       -0.6769983669       -2.3227395677
 H          6.6485795829       -2.0088218337       -1.3800354047
 C          5.1540934453       -0.7470994440       -2.3002917554
 H          4.7018903468        0.1785288778       -1.9366169743
 H          5.2993209286       -0.6300282580       -3.3766075650
 C          4.1644018904       -1.8949418103       -2.0992600055
 H          4.5500082392       -2.7988615012       -2.5760355012
 H          3.2260150479       -1.6298236896       -2.5934009311
 C          3.8543088781       -2.2110575563       -0.6300841614
 H          2.9879505976       -2.8764987831       -0.5966347416
 H          4.7013415881       -2.7167818850       -0.1672054950
 H          6.4990492482        0.9318207547       -0.5750542691
 H          7.7795694425       -0.1758112893       -0.0799328726
 H          6.2771957293       -0.0178215329        1.7382479549
 H          6.0335697465       -1.6221254125        1.0264455157
 O          4.1352535944        0.9276765333        1.4018876172
 C          2.8450259703        1.4297857794        1.3987248664
 O          2.7196717651        2.5065091720        2.0153088229
 H         -1.2085122755       -0.2396796264       -0.6971276680
 C         -1.3442927387       -0.3886757708        0.3627954849
 C         -0.5670247803        0.3272537355        1.2599473652
 C         -0.7422970926        0.0986399059        2.6204552438
 C         -1.6770071908       -0.8163267002        3.0721041534
 C         -2.4484532471       -1.5318228104        2.1728140206
 C         -2.2644028608       -1.3235456166        0.8139224677
 N         -3.0650857067       -2.0449190183       -0.1080257945
 S         -4.6097893829       -1.4208162743       -0.2738808962
 O         -5.2941377617       -1.5483169452        0.9871042697
 O         -5.2044463227       -2.0995458861       -1.4028873639
 C         -4.3471034286        0.3018451162       -0.6575224986
 C         -4.1766853325        1.1983528470        0.3784761221
 C         -3.8669603002        2.5153997233        0.0789027604
 C         -3.7286472441        2.9093895172       -1.2434695944
 C         -3.9034150338        1.9966266100       -2.2725885320
 C         -4.2089472215        0.6775104045       -1.9788528225
 H         -4.3531772226       -0.0642821136       -2.7481781356
 H         -3.7962153354        2.3075119956       -3.2995401316
 H         -3.4815085619        3.9342860578       -1.4726458092
 H         -3.7255891465        3.2263419825        0.8773057841
 H         -4.2918891592        0.8534763607        1.3931767384
 H         -2.6344493150       -2.1114376149       -1.0203006936
 H         -3.1918196838       -2.2400105954        2.5012094380
 H         -1.8051641696       -0.9748966143        4.1321856170
 H         -0.1344436655        0.6495445376        3.3251623739
 C          0.4507950224        1.3350959804        0.7921431292
 H          0.5245002982        2.1215856695        1.5593213663
 C          0.0185190734        2.0231266302       -0.4959247596
 C          0.9869963510        2.8665531741       -1.2681833369
 C          0.4729442866        1.5878314826       -1.8549635268
 H         -0.2354879139        1.6468487608       -2.6685463282
 H          1.1439812542        0.7462435629       -1.9223513953
 H          0.6429742920        3.8018472426       -1.6823535695
 H          2.0085968190        2.8933422294       -0.9167778970
 H         -0.9992852588        2.3950151605       -0.4249657934
 O          1.2322229592       -1.2520303169       -0.4394763093
