  62
        -98.94579762
 C          2.5006898795        1.0947477701       -0.0534870014
 C          3.0794440300        0.1792104202        0.8572704884
 C          3.5117688400       -1.1027270398        0.2921478483
 C          3.3444229995       -1.3426931598       -1.0212889416
 C          3.7323697095       -2.6026621598       -1.7461515617
 C          2.6744637697       -3.7119546500       -1.6634286713
 C          2.5578834203       -4.3984406199       -0.3019138612
 H          1.9438048104       -5.2897894800       -0.4442643810
 H          3.5446799004       -4.7291370798        0.0240566984
 C          1.9167137405       -3.5315112200        0.7911369390
 H          1.3805659502       -2.6981553101        0.3276248991
 H          1.1697908008       -4.1188212201        1.3313335693
 C          2.9028630308       -2.9858722098        1.8250286986
 H          3.3388051811       -3.8157194497        2.3855658585
 H          2.3484937409       -2.3597178299        2.5293582288
 C          4.0406227805       -2.1428093796        1.2332753182
 H          4.5450748007       -1.6255757995        2.0530886180
 H          4.7603968004       -2.7851009395        0.7271964179
 H          1.7040189295       -3.2923918801       -1.9414855310
 H          2.9353121595       -4.4687895899       -2.4068032314
 H          3.8633558191       -2.3302728598       -2.7954617618
 H          4.6822367097       -2.9731273196       -1.3600513020
 O          2.7956803791       -0.4321937299       -1.8672510314
 C          2.3199300591        0.7860820700       -1.4023835813
 O          1.7834919086        1.4913823799       -2.2767625711
 O          3.2167966603        0.4177256903        2.0885704684
 C          1.9430247795        2.4028729800        0.4837986988
 C          0.4392074994        2.3362197198        0.3752159693
 C         -0.3350291510        3.2414435696       -0.3363344305
 C         -1.7033397710        3.0560149094       -0.4462429400
 C         -2.3256102506        1.9725693493        0.1465349803
 C         -1.5601121002        1.0672445895        0.8703152000
 C         -0.1951793002        1.2603917997        0.9866227696
 H          0.4002652701        0.5468310098        1.5442139894
 N         -2.1844622998       -0.0573113306        1.4612717103
 S         -2.7025866600       -1.2145539107        0.3484914405
 O         -2.7764728295       -2.4551572907        1.0897514006
 O         -1.8680317104       -1.2210379207       -0.8326236698
 C         -4.3488012302       -0.6751949610       -0.0562550389
 C         -4.6385017208       -0.2356316611       -1.3326888088
 C         -5.9263015909        0.1933709687       -1.6155680184
 C         -6.8939703506        0.1757591485       -0.6225185080
 C         -6.5863076400       -0.2705675714        0.6543619419
 C         -5.3015856499       -0.7014072711        0.9436521014
 H         -5.0181746595       -1.0610019811        1.9186836713
 H         -7.3415917398       -0.2831772315        1.4234587721
 H         -7.8941605707        0.5121063184       -0.8456474677
 H         -6.1670799213        0.5411688686       -2.6073056983
 H         -3.8509219010       -0.2339354810       -2.0695338291
 H         -1.5905401895       -0.5124027205        2.1418265401
 H         -3.3888943906        1.8215766991        0.0548433907
 H         -2.2923534513        3.7632431493       -1.0098299498
 H          0.1345287487        4.0821318397       -0.8196839806
 H          2.2094729198        2.4163072201        1.5509056187
 C          2.5647070490        3.6041374301       -0.1914414915
 C          2.5618642791        4.9321126401        0.5035086285
 C          3.8406963991        4.1651064903        0.3584631480
 H          4.5851817488        4.5256769904       -0.3351677722
 H          4.2560259695        3.6895863304        1.2350729379
 H          2.4301979387        5.8241081201       -0.0896553715
 H          2.1090827194        4.9816845601        1.4821393986
 H          2.4501879587        3.5867024200       -1.2687595314
