  62
        -98.94378088
 C          1.8878628695        1.2177121799        0.4126781915
 C          1.9448933647        0.2182728326       -0.5891949214
 C          3.2932248406       -0.2425207981       -0.9534455626
 C          4.3650422950        0.3104343838       -0.3570174055
 C          5.7877915672       -0.1040431583       -0.5942579974
 C          6.2204054854       -1.1939689273        0.3964948538
 C          5.2345333237       -2.3574771667        0.5042456706
 H          5.6574444373       -3.0779986156        1.2077908840
 H          4.3004044311       -1.9951678680        0.9398826343
 C          4.9323759049       -3.0595715075       -0.8270573631
 H          4.9637206694       -4.1395699635       -0.6678780341
 H          5.7059424858       -2.8177943097       -1.5569076200
 C          3.5588077686       -2.7361862037       -1.4181114634
 H          3.3637599172       -3.4431966087       -2.2289485038
 H          2.7874371823       -2.8901037623       -0.6589083443
 C          3.3956891529       -1.3232966895       -1.9926334308
 H          4.2090001981       -1.1138442742       -2.6903008400
 H          2.4524176426       -1.2982346104       -2.5457408708
 H          7.1981760430       -1.5706897219        0.0907362393
 H          6.3252394360       -0.7415661226        1.3855061963
 H          6.4277639774        0.7698574136       -0.4609289981
 H          5.8911072761       -0.4651731168       -1.6155865335
 O          4.2703778103        1.2896439494        0.5788962533
 C          3.0343449897        1.7564233258        0.9959692661
 O          3.0866048878        2.6383023772        1.8778978841
 O          0.9292261522       -0.2670850120       -1.1484603850
 C          0.5482663368        1.7563734483        0.8751995213
 C         -0.3412707797        0.6600748873        1.4117366429
 C          0.2063611928       -0.4577687089        2.0328765896
 C         -0.6001074254       -1.4753958573        2.5079508842
 C         -1.9767388229       -1.3943627190        2.3925394666
 C         -2.5361039958       -0.2699799808        1.8041892340
 C         -1.7236519798        0.7465299135        1.3180933522
 H         -2.1778941947        1.6099975387        0.8561205665
 N         -3.9442405037       -0.1920111120        1.6856181693
 S         -4.6046345346       -1.1427985244        0.4707437410
 O         -6.0302564792       -0.9095203958        0.5140795131
 O         -4.1676840768       -2.5011166990        0.6606950690
 C         -3.9226427723       -0.4561755996       -1.0266730032
 C         -2.6151195384       -0.7509142065       -1.3567118432
 C         -2.0425030125       -0.1239098099       -2.4522402979
 C         -2.7866911591        0.7776278905       -3.1975117272
 C         -4.1030185693        1.0561009214       -2.8589902871
 C         -4.6756211997        0.4433276895       -1.7565029160
 H         -5.6912753617        0.6372944175       -1.4507344404
 H         -4.6785191365        1.7554433252       -3.4442679493
 H         -2.3352598590        1.2676439777       -4.0462688469
 H         -1.0097117856       -0.3279635540       -2.6862705960
 H         -2.0541049151       -1.4534941286       -0.7621501828
 H         -4.2801193315        0.7550839137        1.5706651929
 H         -2.6206550621       -2.1874406709        2.7354489620
 H         -0.1521958276       -2.3411317361        2.9725221782
 H          1.2812477273       -0.5289021700        2.1299078696
 H          0.7698044838        2.4496169172        1.7006788231
 C         -0.1099472961        2.5323271965       -0.2510665600
 C         -0.9054800289        3.7703142884        0.0328252327
 C          0.4393963175        3.8763356265       -0.6194408091
 H          0.4900566550        4.1456149654       -1.6635003193
 H          1.2655912614        4.2500536555       -0.0315793336
 H         -1.7803497388        3.9701777052       -0.5678885195
 H         -0.9907374436        4.0894942656        1.0609913391
 H         -0.4396922478        1.8879324395       -1.0579837940
