  62
        -98.94697864
 C         -1.0704106791       -1.7150113140        0.4153957352
 C         -1.8256773725       -1.2472369030       -0.6905381668
 C         -2.8558115968       -0.2392622473       -0.3851994117
 C         -3.0322687665        0.1701112223        0.8829991143
 C         -4.0286045400        1.1997330701        1.3295980136
 C         -3.4233823519        2.6093583519        1.3429245629
 C         -2.7105221701        2.9943014807        0.0463841563
 H         -2.3832358414        4.0317360940        0.1493734755
 H         -1.8067595478        2.3928268832       -0.0750225319
 C         -3.5664116808        2.8535617720       -1.2197007935
 H         -3.4099162846        3.7359861501       -1.8437522998
 H         -4.6250607574        2.8234897802       -0.9564543040
 C         -3.2147677100        1.6369089273       -2.0787587827
 H         -2.1318514126        1.6054038878       -2.2273147357
 H         -3.6776543102        1.7671674072       -3.0612202561
 C         -3.6746933943        0.2780915422       -1.5335440576
 H         -4.7319377623        0.3292326308       -1.2616740993
 H         -3.5616032418       -0.4569343170       -2.3361988039
 H         -4.2250715755        3.3236875729        1.5408595268
 H         -2.7025524788        2.6721056826        2.1614423278
 H         -4.8913221528        1.1707422546        0.6667003592
 H         -4.3507475353        0.9447556682        2.3410462615
 O         -2.2925966750       -0.3017540823        1.9189127960
 C         -1.2953570881       -1.2411217170        1.7096593580
 O         -0.6900393808       -1.5768978568        2.7479247463
 O         -1.6690283109       -1.6437923430       -1.8750365517
 C          0.0369518108       -2.7429906361        0.2806446803
 C          1.3407950073       -2.1535092897       -0.2123895520
 C          2.5368377628       -2.8295084748        0.0142370257
 C          3.7383438685       -2.3043503537       -0.4221047529
 C          3.7801679167       -1.0801457439       -1.0671770676
 C          2.5938343716       -0.3965120981       -1.2972191631
 C          1.3861249206       -0.9445483512       -0.8859739138
 H          0.4783940580       -0.4082060335       -1.1074942191
 N          2.5885051385        0.8592064700       -1.9286650548
 S          1.6593084455        2.0791044904       -1.2549663820
 O          0.2639200376        1.8642564082       -1.5311328647
 O          2.2313753982        3.2989597773       -1.7831771390
 C          1.9880355274        1.9562171531        0.4925130273
 C          3.1953851279        2.4344696211        0.9642864368
 C          3.5066336195        2.2642609809        2.3030130352
 C          2.6184860918        1.6054853142        3.1407457668
 C          1.4098576225        1.1326703205        2.6540830681
 C          1.0894597153        1.3137706955        1.3180641037
 H          0.1552227510        0.9572898225        0.9130402867
 H          0.7190208879        0.6013216327        3.2908244627
 H          2.8662836174        1.4585568730        4.1800925697
 H          4.4421715534        2.6362006516        2.6885260217
 H          3.8569217372        2.9417984211        0.2808269989
 H          3.5048310951        1.2037416470       -2.1771475131
 H          4.7190513251       -0.6584669104       -1.3916399385
 H          4.6560660193       -2.8429963111       -0.2431673091
 H          2.5194583843       -3.7715834071        0.5395240533
 H          0.2158917846       -3.1198607864        1.2982635537
 C         -0.3657690331       -3.9161602717       -0.5965891712
 C          0.0893498259       -5.3033003360       -0.2620973265
 C         -1.3466382001       -4.9198183527       -0.0716087458
 H         -2.0894187574       -5.3155349029       -0.7475881811
 H         -1.7069947724       -4.7799223185        0.9376395949
 H          0.3406941934       -5.9696790038       -1.0728631738
 H          0.6878460590       -5.4420561751        0.6253421724
 H         -0.4473652035       -3.6496794472       -1.6429381395
