  62
        -98.94543668
 C         -2.4819590580       -1.1947068485       -0.0112827860
 C         -3.2411464342       -0.4476186451        0.9201023704
 C         -3.9087322963        0.7466039339        0.3906025292
 C         -3.7752863398        1.0641584988       -0.9102404389
 C         -4.4020840345        2.2450892998       -1.6007787426
 C         -3.6026648966        3.5474123577       -1.4546027114
 C         -3.6534793069        4.1902643504       -0.0678594885
 H         -3.2369646126        5.1947731025       -0.1652472920
 H         -4.6927850577        4.2964515194        0.2444679067
 C         -2.8651075269        3.4333658101        1.0102891946
 H         -2.1656157629        2.7433960145        0.5305638209
 H         -2.2656591663        4.1412758360        1.5876690007
 C         -3.7328735860        2.6569833796        2.0013797471
 H         -3.0733240925        2.1329452303        2.6980550783
 H         -4.3429396080        3.3559424294        2.5774699344
 C         -4.6579711526        1.6187950636        1.3526563983
 H         -5.4870790336        2.1156033308        0.8499251171
 H         -5.0581205026        0.9769738910        2.1412260926
 H         -2.5624363252        3.3523466905       -1.7281211377
 H         -4.0065320003        4.2607108733       -2.1766992357
 H         -4.4551922764        1.9919638253       -2.6617636163
 H         -5.4152878424        2.3946350367       -1.2269572626
 O         -3.0435504288        0.3140491155       -1.7767605811
 C         -2.3594194076       -0.8156615087       -1.3483947560
 O         -1.7001888684       -1.3839588190       -2.2388937342
 O         -3.3484299554       -0.7589164607        2.1371641302
 C         -1.7244720240       -2.4190957033        0.4703918150
 C         -0.2442582597       -2.2124613035        0.2591209821
 C          0.5861620401       -3.1483317369       -0.3420887879
 C          1.9307727658       -2.8748214948       -0.5275508388
 C          2.4766428827       -1.6736851328       -0.1147987533
 C          1.6563772696       -0.7326910772        0.4943028425
 C          0.3123958471       -1.0111947805        0.6823396250
 H         -0.3261163301       -0.2732143954        1.1539253055
 N          2.2028411313        0.4903773355        0.9272070748
 S          3.0576528894        1.3988589909       -0.2004891304
 O          2.9536908146        2.7661884177        0.2622738504
 O          2.6055794537        1.1396318220       -1.5479144956
 C          4.7369337593        0.8445364717        0.0047133922
 C          5.3047427228        0.9446442002        1.2598511127
 C          6.6113844838        0.5197892992        1.4386875043
 C          7.3247680561        0.0074812118        0.3650989990
 C          6.7415045652       -0.0829179925       -0.8894323761
 C          5.4341350125        0.3394710822       -1.0750216180
 H          4.9364903058        0.2829555534       -2.0302174257
 H          7.2974001981       -0.4813336364       -1.7228456032
 H          8.3415062130       -0.3231306470        0.5068855465
 H          7.0682243573        0.5886101929        2.4127299347
 H          4.7167584597        1.3523778664        2.0649433988
 H          1.5366668848        1.0770343372        1.4094953216
 H          3.5209084954       -1.4542312562       -0.2658038880
 H          2.5624666301       -3.6084459407       -1.0046289104
 H          0.1788286626       -4.0873376921       -0.6784594774
 H         -1.9122633294       -2.4708411745        1.5534632160
 C         -2.2649472173       -3.6756467728       -0.1775022446
 C         -2.1560681669       -4.9936206371        0.5279541175
 C         -3.4879281568       -4.3191356620        0.4017447016
 H         -4.2188900681       -4.7374679439       -0.2736855925
 H         -3.9181242068       -3.8629882904        1.2814372325
 H         -1.9746202126       -5.8799148741       -0.0609584857
 H         -1.6832813322       -5.0030132517        1.4982543441
 H         -2.1710554800       -3.6598066665       -1.2575312813
