  62
        -98.93419931
 C          2.4386513326        1.2741457921       -0.0823375800
 C          2.2945104405        0.0342345880       -0.7461277263
 C          3.5338533104       -0.7341208187       -0.9695338839
 C          4.7048816746       -0.2244239248       -0.5498224029
 C          6.0621238656       -0.8676018110       -0.6235168672
 C          6.3755097969       -1.6219174191        0.6799328907
 C          5.8759147680       -3.0653909105        0.7259510039
 H          6.4791289592       -3.6753499311        0.0503368426
 H          6.0441720624       -3.4352605094        1.7399288879
 C          4.3993228889       -3.2605686008        0.3713328093
 H          3.7973938785       -2.4847333338        0.8485815779
 H          4.0786020162       -4.2178059751        0.7871037777
 C          4.1379805613       -3.2656617154       -1.1421814319
 H          3.5525598942       -4.1492423591       -1.4050206305
 H          5.0886293808       -3.3566946974       -1.6674302147
 C          3.3667111664       -2.0502480475       -1.6788602576
 H          3.6121778500       -1.9102563469       -2.7370989640
 H          2.2913455547       -2.2521551466       -1.6335122619
 H          5.9403319122       -1.0550789413        1.5068881629
 H          7.4574002534       -1.6344901702        0.8259325968
 H          6.7846839220       -0.0571665591       -0.7386281575
 H          6.1307099794       -1.5245611833       -1.4853251140
 O          4.7981117801        0.9799624167        0.0788375868
 C          3.6803790660        1.7507161976        0.3366577671
 O          3.9157000716        2.8187980338        0.9367627035
 O          1.1840341423       -0.4203168420       -1.1310867574
 C          1.2170156279        2.1270236927        0.2129193078
 C          0.2561453471        1.3390955720        1.0700736459
 C          0.7139615984        0.8436746729        2.2891312855
 C         -0.1135033123        0.0962454687        3.1031586347
 C         -1.4125245092       -0.1799322075        2.7134884290
 C         -1.8830284713        0.3171818265        1.5044484407
 C         -1.0530365573        1.0834585235        0.6960326961
 H         -1.4385112035        1.4498772792       -0.2396257264
 N         -3.2166027092        0.0828436313        1.1151691678
 S         -3.5559634945       -0.3714819166       -0.4773898953
 O         -2.8635668583       -1.5968018218       -0.8101383591
 O         -3.3430275245        0.7542626023       -1.3494869528
 C         -5.3056376805       -0.6876902212       -0.3263863744
 C         -5.7541497338       -1.9874650447       -0.1885735504
 C         -7.1136661833       -2.2169204621       -0.0456307056
 C         -7.9967888681       -1.1479260900       -0.0403801173
 C         -7.5319670504        0.1513832296       -0.1808887629
 C         -6.1741031539        0.3871697426       -0.3252469341
 H         -5.7677849756        1.3776829478       -0.4460844901
 H         -8.2220892834        0.9795990921       -0.1792590228
 H         -9.0542251205       -1.3288124370        0.0709149435
 H         -7.4778193259       -3.2261755513        0.0600726432
 H         -5.0315424526       -2.7875642729       -0.2085333647
 H         -3.6779599073       -0.5629477988        1.7438800272
 H         -2.0570246101       -0.7755127156        3.3426780263
 H          0.2565129178       -0.2838868538        4.0436547492
 H          1.7348888582        1.0497517934        2.5830416593
 H          1.5800171731        2.9814486354        0.8029077703
 C          0.6077302556        2.6477363611       -1.0708209217
 C         -0.1973629520        3.9111135489       -1.0576595722
 C          1.1629759079        3.8955527716       -1.6860755256
 H          1.2370289776        3.9504147065       -2.7618278591
 H          1.9737458050        4.3853128892       -1.1661782567
 H         -1.0624679899        3.9738170765       -1.7004637862
 H         -0.3122270206        4.4186550035       -0.1117911339
 H          0.2992182676        1.8542622431       -1.7427714435
