  62
        -98.94313050
 C          2.5845680705        0.0680176782        0.3711301494
 C          2.6919489407        1.0842973078       -0.6141138410
 C          2.1201609916        2.3894037883       -0.2763092812
 C          1.5405974722        2.5665996990        0.9241037189
 C          0.8683720931        3.8226647896        1.4073523288
 C         -0.5827817170        3.9533462803        0.9234910593
 C         -0.7436801373        4.3427851699       -0.5470517908
 H         -1.7826209772        4.6496215204       -0.6833992205
 H         -0.1158481869        5.2077791494       -0.7652980913
 C         -0.4326159384        3.2113156894       -1.5368947705
 H         -0.4684876087        2.2516653296       -1.0152559302
 H         -1.2062215287        3.1834084896       -2.3085233402
 C          0.9094820515        3.3434561183       -2.2575674911
 H          0.8904456517        4.2206169081       -2.9092493814
 H          1.0472173107        2.4583321981       -2.8839397308
 C          2.1248329619        3.4566402679       -1.3292346716
 H          2.1552462326        4.4430555881       -0.8667092319
 H          3.0273015816        3.3225802972       -1.9312257119
 H         -1.0657838863        4.7172616108        1.5378603592
 H         -1.0929501075        3.0029742606        1.1033176998
 H          0.8676747735        3.7764613899        2.4985922988
 H          1.4424041835        4.6957721491        1.0949531883
 O          1.5135090119        1.5921739493        1.8683967493
 C          1.9862353611        0.3122248090        1.6078699395
 O          1.8324458010       -0.4713638506        2.5672076998
 O          3.2446738402        0.9013097071       -1.7331727911
 C          3.0208096095       -1.3206751622       -0.0667947303
 C          1.8571116389       -1.9652847517       -0.7866732897
 C          2.0053819780       -2.5316516622       -2.0467195696
 C          0.9073249275       -3.0285777218       -2.7272732090
 C         -0.3603350322       -2.9344845409       -2.1825340486
 C         -0.5161768714       -2.3784141404       -0.9172172987
 C          0.5937607791       -1.9371539408       -0.2143726592
 H          0.4530799997       -1.5226722904        0.7727292607
 N         -1.7827018711       -2.2383536494       -0.3297909783
 S         -2.0581093300       -0.8459681590        0.5959974114
 O         -1.3177362795        0.2697699104        0.0566641208
 O         -1.8377662497       -1.1707089686        1.9831366714
 C         -3.8048009899       -0.6087956280        0.3196352420
 C         -4.7004362602       -1.4131764973        0.9994002526
 C         -6.0566615701       -1.2519077465        0.7650084730
 C         -6.4924377499       -0.2945290366       -0.1394490171
 C         -5.5820732897        0.5068378227       -0.8116715677
 C         -4.2237401297        0.3491651119       -0.5835611182
 H         -3.4781130995        0.9522204913       -1.0768614687
 H         -5.9229890895        1.2529929126       -1.5110534279
 H         -7.5486072399       -0.1699683460       -0.3188316968
 H         -6.7672811903       -1.8710143760        1.2882706635
 H         -4.3142236503       -2.1342590373        1.7009480226
 H         -2.5428812515       -2.4254410192       -0.9692683679
 H         -1.2229345226       -3.2820029406       -2.7304190681
 H          1.0357491169       -3.4649193922       -3.7061585589
 H          2.9834326179       -2.5556148230       -2.5036147699
 H          3.8212181693       -1.1636445129       -0.8038458107
 C          3.5480254394       -2.2201332522        1.0299985198
 C          4.4856302586       -3.3325433228        0.6695314398
 C          4.9924199896       -2.1376415329        1.4186145192
 H          5.2482786999       -2.2458796127        2.4615787991
 H          5.6105590898       -1.4272834734        0.8891847487
 H          4.3952874182       -4.2695127726        1.1969437701
 H          4.7676334381       -3.4354293733       -0.3672262503
 H          2.8309126496       -2.4001877415        1.8202717601
