  62
        -98.93684635
 C          2.4768649676        0.3883058841       -0.1746100827
 C          2.1076954417        1.4433599117       -1.0410370944
 C          1.4848188292        2.6098186765       -0.4085066365
 C          1.3066706540        2.6262019470        0.9249928428
 C          0.7050943239        3.7504180405        1.7246201581
 C         -0.8288401915        3.7283743237        1.7616632748
 C         -1.5122342596        4.1730620326        0.4680582992
 H         -2.5639697057        4.3481987874        0.7027111599
 H         -1.0875299918        5.1219334845        0.1378076700
 C         -1.4287754435        3.1439509687       -0.6673292910
 H         -1.1785473804        2.1627643824       -0.2569918447
 H         -2.4077829175        3.0385245946       -1.1422100711
 C         -0.4312879622        3.4836408043       -1.7751163187
 H         -0.4206710404        2.6459487314       -2.4780724284
 H         -0.7673062787        4.3739993485       -2.3127235995
 C          1.0054965899        3.7213703639       -1.2930263859
 H          1.0731828087        4.6768857563       -0.7723810031
 H          1.6583787466        3.7514678353       -2.1694047927
 H         -1.1534990817        2.7147897905        2.0096848394
 H         -1.1472220813        4.3939477282        2.5675661703
 H          1.0496208046        4.7075305181        1.3312824711
 H          1.0773618500        3.6371702920        2.7450941672
 O          1.6935959323        1.6010455929        1.7273225035
 C          2.2428551370        0.4417208669        1.2002663799
 O          2.4920354108       -0.4341475124        2.0489502706
 O          2.2975030243        1.4117463623       -2.2893000996
 C          3.0430232528       -0.8922853173       -0.7811551991
 C          2.1625873743       -2.0250843037       -0.3084151758
 C          2.5150062611       -3.1614734823        0.4064249593
 C          1.5438592812       -4.0542607861        0.8336024988
 C          0.2032158900       -3.8290941929        0.5925263930
 C         -0.1642505946       -2.7010740612       -0.1329279183
 C          0.8121791954       -1.8441420249       -0.6033361731
 H          0.5082024008       -0.9752509938       -1.1704135479
 N         -1.5145275294       -2.4053447446       -0.4012857722
 S         -1.9338763245       -0.7640779533       -0.3725985082
 O         -1.6949952994       -0.2124366308       -1.6825337537
 O         -1.2955836703       -0.1030104345        0.7430009312
 C         -3.6918056103       -0.8828631484       -0.0965561076
 C         -4.5076397784       -1.2076517843       -1.1641217760
 C         -5.8709361356       -1.3349749677       -0.9508350224
 C         -6.3931146247       -1.1362103751        0.3188915708
 C         -5.5625435240       -0.8078842164        1.3796682743
 C         -4.1975623815       -0.6808264601        1.1732543701
 H         -3.5129895043       -0.4214394746        1.9651507664
 H         -5.9708076225       -0.6500527570        2.3648859764
 H         -7.4545364215       -1.2349367823        0.4824315671
 H         -6.5199891843       -1.5870508404       -1.7738119969
 H         -4.0560953715       -1.3422857883       -2.1331019915
 H         -2.1493679759       -2.9573402961        0.1601888146
 H         -0.5498711153       -4.5072672510        0.9640945338
 H          1.8425892278       -4.9277468064        1.3935677208
 H          3.5372058921       -3.3596002485        0.6720565174
 H          2.8630152256       -0.7849786771       -1.8652681652
 C          4.5535962625       -0.9032392587       -0.6143305328
 C          5.2892679527       -1.3733256804        0.6010346440
 C          5.4299697288       -2.1169417680       -0.6952132484
 H          6.3642031586       -2.0217533911       -1.2289011038
 H          4.9667148994       -3.0832163898       -0.8064497666
 H          6.1251201328       -0.7779520396        0.9396949690
 H          4.7109677626       -1.7903459055        1.4090353960
 H          4.9563243506       -0.0069594084       -1.0824966808
