  62
        -98.94661231
 C         -1.3805817189       -1.4843925700       -0.2838554082
 C         -2.5944258388       -1.4141652703        0.4468669519
 C         -3.6201763195       -0.5070689914       -0.0755488186
 C         -3.3834558501        0.1826023980       -1.2060035391
 C         -4.3320621608        1.1404450770       -1.8742021296
 C         -4.2914487717        2.5590490774       -1.2896822905
 C         -4.9351273716        2.7123017779        0.0891724695
 H         -5.0355457623        3.7830629979        0.2775501788
 H         -5.9398539113        2.2885145772        0.0692595099
 C         -4.1315588810        2.0842088692        1.2366941898
 H         -3.1030005510        1.9108097996        0.9091831297
 H         -4.0822214514        2.7859007998        2.0726930293
 C         -4.7116668701        0.7765688791        1.7768525707
 H         -4.0419649297        0.4024704701        2.5555343109
 H         -5.6852707201        0.9699408488        2.2327946407
 C         -4.8754931095       -0.3264256317        0.7231570515
 H         -5.7153178097       -0.0989286427        0.0669678615
 H         -5.0780004988       -1.2672252715        1.2409567422
 H         -3.2499414519        2.8884323781       -1.2446088709
 H         -4.8170967922        3.2152106266       -1.9875927809
 H         -4.0347029310        1.1923516365       -2.9238615896
 H         -5.3489405106        0.7505262263       -1.8185242092
 O         -2.2231028901        0.0646163983       -1.8998804791
 C         -1.1812406595       -0.7343794107       -1.4442328588
 O         -0.1703178297       -0.6892377705       -2.1713603489
 O         -2.8108626682       -2.0902294998        1.4893054724
 C         -0.2997455582       -2.3792843589        0.2883030822
 C          0.6563977315       -1.6315920177        1.1927309016
 C          1.3511355221       -2.3148199665        2.1867296919
 C          2.2334472017       -1.6482210954        3.0157276814
 C          2.4518403908       -0.2899697954        2.8650741904
 C          1.7635831702        0.4028882035        1.8770367401
 C          0.8718218605       -0.2704033976        1.0523939406
 H          0.3376164800        0.2897666315        0.3014238803
 N          1.9475543792        1.7841467035        1.7046484791
 S          2.1020750586        2.4035380226        0.1542828287
 O          2.7077405078        3.7037985331        0.3555684177
 O          0.8260008985        2.4036933913       -0.5135677111
 C          3.2766634792        1.3130246729       -0.6265610308
 C          2.8616390998        0.3008425920       -1.4666486300
 C          3.8146511303       -0.5690837977       -1.9770326696
 C          5.1502957902       -0.4163508966       -1.6422090099
 C          5.5503465397        0.6117612743       -0.8013374206
 C          4.6058419092        1.4820812840       -0.2849100711
 H          4.8738000287        2.3012952746        0.3626571583
 H          6.5905446996        0.7338193751       -0.5458978109
 H          5.8825548906       -1.1005714563       -2.0410687195
 H          3.4980397007       -1.3639522683       -2.6338907290
 H          1.8170468898        0.1967743312       -1.7171779198
 H          2.6342562391        2.1928127744        2.3223592887
 H          3.1387050305        0.2336684255        3.5120128000
 H          2.7593388922       -2.1895419145        3.7869897716
 H          1.1850450228       -3.3730435466        2.3150066827
 H         -0.8336803676       -3.1107438588        0.9124486128
 C          0.4873918422       -3.1337621091       -0.7674501274
 C          0.9665050531       -4.5277621486       -0.5003336465
 C         -0.1493539172       -4.2924283600       -1.4725163465
 H          0.0384420728       -4.4170789506       -2.5280950465
 H         -1.1516131969       -4.5650162105       -1.1746364462
 H          1.9310276433       -4.8206221982       -0.8850738865
 H          0.7138882736       -4.9790645981        0.4468433538
 H          1.1233747317       -2.4887305291       -1.3596997679
