  62
        -98.94515562
 C         -1.8012852894       -1.4692351527        0.0828376832
 C         -1.5820087565       -0.0715461505        0.0139921587
 C         -2.6875417430        0.7654050579        0.4978216044
 C         -3.8154402173        0.1903510697        0.9526796182
 C         -5.0232669405        0.9123778316        1.4861710754
 C         -5.9851180155        1.4107791880        0.3986008610
 C         -5.4921851174        2.6128018044       -0.4084472405
 H         -6.3477238414        2.9918495253       -0.9711492060
 H         -5.1773799339        3.4024279002        0.2745190170
 C         -4.3568846168        2.2947767479       -1.3917494985
 H         -4.3089183231        1.2156685871       -1.5548639399
 H         -4.5741237837        2.7549192165       -2.3584051547
 C         -2.9794016166        2.7899840906       -0.9510722683
 H         -2.9790552096        3.8816461980       -0.9141348869
 H         -2.2467630430        2.4747528066       -1.6979200545
 C         -2.5256482100        2.2529018599        0.4120549355
 H         -1.4620174627        2.4703919892        0.5309899869
 H         -3.0792057286        2.7425323963        1.2129562541
 H         -6.9177699660        1.6912689543        0.8937604757
 H         -6.2060547414        0.5825920865       -0.2788098916
 H         -4.7052644072        1.7522844130        2.1046251767
 H         -5.5579790683        0.1994171721        2.1175659822
 O         -3.9850494957       -1.1588123205        0.9988948366
 C         -2.9865803243       -2.0187079071        0.5688432790
 O         -3.2679230013       -3.2301644246        0.6748443867
 O         -0.5242748416        0.4491708895       -0.4218455188
 C         -0.7083503509       -2.4199857405       -0.3729466606
 C          0.5664968255       -2.0825248697        0.3600308276
 C          0.5478686209       -2.0577119565        1.7523204524
 C          1.6729605516       -1.7009343237        2.4699297813
 C          2.8437904207       -1.3580659708        1.8155894875
 C          2.8743899923       -1.3863643639        0.4288221264
 C          1.7454830754       -1.7582656195       -0.2903634254
 H          1.7896247448       -1.7715498645       -1.3680331821
 N          4.0599082108       -1.0338720790       -0.2476108459
 S          4.6954841754        0.4875943175        0.0509064211
 O          5.6645637991        0.7008228298       -1.0008809997
 O          5.2027200926        0.5315310013        1.3991806460
 C          3.3322483461        1.6208667851       -0.1328500752
 C          2.6015027015        1.9947381768        0.9757124471
 C          1.5209071531        2.8445362731        0.8072733924
 C          1.1876890448        3.2973936366       -0.4588302816
 C          1.9285546766        2.9076055124       -1.5629244557
 C          3.0100291663        2.0584733266       -1.4016821656
 H          3.6176482204        1.7401636784       -2.2340197237
 H          1.6617519682        3.2580025246       -2.5472623788
 H          0.3429148883        3.9559543965       -0.5882735196
 H          0.9389474816        3.1443517781        1.6646460783
 H          2.8911466906        1.6223922992        1.9448860534
 H          4.0028121165       -1.1793980807       -1.2460347399
 H          3.7262092428       -1.0580837870        2.3572628045
 H          1.6390481902       -1.6838192772        3.5490522500
 H         -0.3709345531       -2.3107461276        2.2646736391
 H         -1.0284719516       -3.4273977931       -0.0714581692
 C         -0.5804830371       -2.3788268179       -1.8814058304
 C         -0.0242639629       -3.5560011451       -2.6236570822
 C         -1.4863695461       -3.2380690416       -2.7088526194
 H         -1.8749281551       -2.8376273072       -3.6332893644
 H         -2.1835544058       -3.8738150515       -2.1826265058
 H          0.5886410538       -3.3773722023       -3.4944931861
 H          0.2741105766       -4.4166875209       -2.0443729278
 H         -0.3599948706       -1.3849183291       -2.2545918813
