  62
        -98.94144534
 C         -1.6460861601       -1.1721779004        0.1711995897
 C         -1.6779876003        0.1835624397        0.5869813394
 C         -2.7698212804        1.0081155494        0.0555476891
 C         -3.6534028102        0.4525452091       -0.7935478509
 C         -4.8420243503        1.1570191388       -1.3792639012
 C         -6.0862555703        0.9744625787       -0.4992691013
 C         -5.8455844306        1.2789541091        0.9792974686
 H         -6.7982706806        1.1505517090        1.4976979686
 H         -5.1554341705        0.5374998693        1.3885748689
 C         -5.2981451908        2.6861494992        1.2561383784
 H         -5.8481374010        3.1168526293        2.0955278083
 H         -5.4720111208        3.3283062090        0.3920133783
 C         -3.8148706109        2.7272421296        1.6284692386
 H         -3.6195552109        2.0140671798        2.4334746288
 H         -3.5890470511        3.7247202697        2.0150972884
 C         -2.8292901007        2.4467697295        0.4868947688
 H         -3.0576889507        3.0947287993       -0.3620978014
 H         -1.8274075908        2.6925182397        0.8519864988
 H         -6.8777116504        1.6216112285       -0.8816088216
 H         -6.4229609601       -0.0612480913       -0.5852167111
 H         -4.6134363004        2.2154691688       -1.4873760214
 H         -5.0406475001        0.7338139985       -2.3652850711
 O         -3.5837325199       -0.8431424710       -1.1842152506
 C         -2.5827043599       -1.6922738107       -0.7234721203
 O         -2.6561921196       -2.8442374008       -1.1858545901
 O         -0.8262666105        0.6802237600        1.3730729294
 C         -0.5096513700       -2.0163852901        0.7212402300
 C          0.6914316601       -1.8938317601       -0.1811800199
 C          0.6061226203       -2.1946382704       -1.5380464299
 C          1.7122636604       -2.0554519704       -2.3552077698
 C          2.9129070203       -1.5920709901       -1.8442045097
 C          3.0048173900       -1.2775403498       -0.4941665998
 C          1.8988947500       -1.4434537198        0.3298792301
 H          1.9858598998       -1.1921855195        1.3760598801
 N          4.2084300199       -0.8013724594        0.0544983403
 S          4.1881288996        0.5915433607        0.9876624200
 O          5.5806404395        0.9673226910        1.0996568801
 O          3.4968834495        0.3430051609        2.2252109400
 C          3.3248669995        1.7852267504       -0.0178114604
 C          4.0753569495        2.5370988103       -0.9024262404
 C          3.4315649894        3.4226456800       -1.7500852007
 C          2.0494873994        3.5323592198       -1.7092374309
 C          1.3121496894        2.7691637999       -0.8182852708
 C          1.9496061995        1.8860992002        0.0403309894
 H          1.3829993795        1.2945199002        0.7426553795
 H          0.2365544694        2.8455419997       -0.7797739510
 H          1.5436162794        4.2167943496       -2.3718996511
 H          4.0051958994        4.0204713000       -2.4399246208
 H          5.1475240895        2.4239733205       -0.8955324603
 H          4.9711211600       -0.7602699195       -0.6070459496
 H          3.7727649603       -1.4744330400       -2.4860238696
 H          1.6369102006       -2.2998353006       -3.4039878297
 H         -0.3356791696       -2.5385633606       -1.9391237499
 H         -0.2441455302       -1.5421521598        1.6802405799
 C         -0.8995868298       -3.4551992901        1.0252470802
 C         -0.3498644095       -4.6401380501        0.2949990205
 C          0.0890055203       -4.3609616898        1.6990115005
 H         -0.2546546297       -5.0074744497        2.4922486006
 H          1.0890980302       -3.9785954596        1.8430915306
 H         -1.0201167093       -5.4662494403        0.1130451306
 H          0.3574537806       -4.4714888202       -0.5011726894
 H         -1.9308890198       -3.5350431102        1.3532338501
