  62
        -98.93739287
 C         -2.2909513466       -1.3529853653       -0.0765073835
 C         -3.0896597437       -0.6775703586        0.8838338458
 C         -3.8390703297        0.4922208444        0.4116599621
 C         -3.7543203526        0.8546169509       -0.8804652440
 C         -4.4822433200        1.9911326603       -1.5476335069
 C         -4.0991584239        3.4078240321       -1.0774295685
 C         -4.9981854074        3.9701960551        0.0307397489
 H         -5.1793177053        5.0282107107       -0.1691730569
 H         -5.9670593794        3.4716883283       -0.0171540876
 C         -4.4434907256        3.8743516980        1.4551740989
 H         -3.6943412050        4.6563066122        1.5989594540
 H         -5.2646356259        4.0738049751        2.1470024490
 C         -3.7912351709        2.5437495106        1.8320090931
 H         -3.6274221497        2.5383403023        2.9114374035
 H         -2.8020141000        2.4756555680        1.3713839541
 C         -4.5973950716        1.2933256008        1.4293874434
 H         -4.7366374521        0.6450351022        2.2966166569
 H         -5.5772827423        1.5732247265        1.0459821049
 H         -4.1805723839        4.0620875613       -1.9470492406
 H         -3.0544161643        3.4167562293       -0.7657198247
 H         -5.5568878595        1.8442864751       -1.4182376688
 H         -4.2571457632        1.8960700543       -2.6118906613
 O         -2.9912126423        0.1721934456       -1.7750900999
 C         -2.2219875578       -0.9191020983       -1.3999729673
 O         -1.5535868200       -1.3944548891       -2.3417414622
 O         -3.1791502332       -1.0466230273        2.0847685063
 C         -1.4782669107       -2.5355776377        0.4288059004
 C         -0.0650629154       -2.0843496668        0.7105524890
 C          0.4060214688       -1.9813788832        2.0142642844
 C          1.6798340208       -1.5033970656        2.2683945962
 C          2.5041218473       -1.1078093440        1.2299909825
 C          2.0381942303       -1.1988120833       -0.0747567111
 C          0.7712853618       -1.6995393700       -0.3283130621
 H          0.4108411465       -1.7473251875       -1.3454325553
 N          2.8582409490       -0.7522257985       -1.1366931952
 S          3.1342291249        0.9111667842       -1.1381752008
 O          2.0418061463        1.6277091066       -0.5170883668
 O          3.4339819027        1.2564625498       -2.5109208280
 C          4.6123358810        1.0847357516       -0.1603048616
 C          4.5790390181        1.8008500822        1.0200376717
 C          5.7420735488        1.9172292035        1.7656477378
 C          6.9106327391        1.3187094196        1.3198457779
 C          6.9277740698        0.6049932105        0.1305232379
 C          5.7690731683        0.4856171143       -0.6200066407
 H          5.7379902318       -0.0545110830       -1.5514303773
 H          7.8384452539        0.1415826543       -0.2130555059
 H          7.8134918927        1.4095570494        1.9028215739
 H          5.7303704591        2.4720204668        2.6900493044
 H          3.6453409548        2.2433880687        1.3284861018
 H          2.4890474884       -1.0180671590       -2.0402693015
 H          3.4933252859       -0.7241911389        1.4202020782
 H          2.0315512138       -1.4302737670        3.2861100935
 H         -0.2446705825       -2.2576103867        2.8311565585
 H         -1.9395267862       -2.8104624227        1.3867554498
 C         -1.5186511607       -3.7417856544       -0.4866100603
 C         -1.1898479509       -5.0904059525        0.0776802240
 C         -2.6010699102       -4.7613667415       -0.3041277265
 H         -3.0227327844       -5.2255094558       -1.1829637739
 H         -3.3180138716       -4.5924773519        0.4860456684
 H         -0.6391116731       -5.7848527826       -0.5377911539
 H         -0.9502553873       -5.1466476402        1.1286109314
 H         -1.2071510188       -3.5288764215       -1.5007168530
