  62
        -98.94475850
 C         -1.9944036742       -0.4652259243       -0.0925517663
 C         -3.0027589312       -0.6396839738        0.8930512084
 C         -4.1535177657        0.2685105346        0.8234549776
 C         -4.1849464459        1.2130406261       -0.1337712733
 C         -5.3131322991        2.1777905637       -0.3532250077
 C         -6.3416569403        1.6157838135       -1.3446563393
 C         -6.7864698372        0.1875532111       -1.0297985503
 H         -7.5330473195       -0.0922708332       -1.7761906144
 H         -5.9363923257       -0.4865546702       -1.1570665121
 C         -7.3739566266        0.0008956800        0.3760605430
 H         -7.6626950835        0.9683086009        0.7886000383
 H         -8.2811713198       -0.6020525357        0.2989782322
 C         -6.4468857400       -0.7136450659        1.3611729838
 H         -6.0807659702       -1.6405707473        0.9126807139
 H         -7.0331478147       -0.9861380649        2.2427707078
 C         -5.2387797812        0.0962731717        1.8485858898
 H         -5.5727535789        1.0666244088        2.2218849593
 H         -4.7830504069       -0.4523666459        2.6779859961
 H         -7.2104492864        2.2765458251       -1.3518623286
 H         -5.9000374804        1.6245235573       -2.3438740536
 H         -5.7913193317        2.3913567576        0.6008623563
 H         -4.9000229420        3.1037245076       -0.7571617801
 O         -3.1966207726        1.3642530599       -1.0486947160
 C         -2.0841457127        0.5346831010       -1.0608380488
 O         -1.2800195252        0.8058946561       -1.9760692048
 O         -2.9421584358       -1.5232004799        1.7888630548
 C         -0.8085695924       -1.4144166070       -0.0251189668
 C          0.3805501314       -0.7476601559        0.6247838642
 C          0.8325760677       -1.1609737896        1.8726504472
 C          1.9214526054       -0.5478377604        2.4681136780
 C          2.5825079647        0.4864131663        1.8309332093
 C          2.1383436225        0.9052453965        0.5827413768
 C          1.0514199728        0.2846243237       -0.0158693628
 H          0.7017659345        0.6268086787       -0.9783055423
 N          2.8060595276        1.9509865596       -0.0759584450
 S          4.4773999693        1.9042427169       -0.1073946208
 O          4.9999519292        2.4604845341        1.1167466887
 O          4.8595593938        2.5907711316       -1.3215706594
 C          4.8981804666        0.1721078804       -0.2042188030
 C          5.6980204483       -0.3951423069        0.7667099719
 C          5.9903929093       -1.7475184249        0.6892271826
 C          5.4756443671       -2.5061454206       -0.3501672637
 C          4.6757662981       -1.9207537384       -1.3197215459
 C          4.3829320319       -0.5687638746       -1.2495388419
 H          3.7650756172       -0.0861463815       -1.9899586589
 H          4.2753077093       -2.5124545458       -2.1271200276
 H          5.6978414973       -3.5599978293       -0.4069081615
 H          6.6136020313       -2.2045278637        1.4408836156
 H          6.0711987062        0.2310815271        1.5607106975
 H          2.4195866222        2.1736817136       -0.9814260782
 H          3.4247687264        0.9844173272        2.2836069296
 H          2.2583578482       -0.8770248451        3.4390738718
 H          0.3126010304       -1.9585369009        2.3827779354
 H         -1.1344342307       -2.2279944309        0.6364285054
 C         -0.4381743861       -2.0092458564       -1.3701208402
 C          0.3939244233       -3.2546069308       -1.4089713334
 C         -1.0542450212       -3.3083086013       -1.7909375798
 H         -1.3122297467       -3.4428720699       -2.8307970868
 H         -1.7458934922       -3.7783360500       -1.1069859144
 H          1.1328582163       -3.3540156145       -2.1888042359
 H          0.6865628594       -3.6897512204       -0.4656971367
 H         -0.2732042943       -1.2676829389       -2.1405679653
