  62
        -98.94630672
 C         -2.5744730474       -0.0085650135       -0.4236580489
 C         -2.1866298420       -0.5774687625        0.8134927344
 C         -1.8791004556       -2.0126931388        0.7859637667
 C         -1.9652440417       -2.6935672180       -0.3714193619
 C         -1.7427199786       -4.1713403539       -0.5524374169
 C         -0.2718185701       -4.5738159307       -0.7192684622
 C          0.5639522479       -4.5109493649        0.5591039205
 H          0.0511193926       -5.0498875297        1.3566346712
 H          1.5000717119       -5.0354030129        0.3578252832
 C          0.8903604800       -3.0860918494        1.0254607912
 H          0.7465573895       -2.3812788761        0.2024846535
 H          1.9459636122       -3.0203868763        1.3014919158
 C          0.0881038468       -2.6002795749        2.2326335125
 H          0.3714056983       -1.5600349018        2.4140582202
 H          0.3602869679       -3.1866304872        3.1140809052
 C         -1.4346660155       -2.6639492898        2.0605641506
 H         -1.7727612435       -3.7003268805        2.0954033882
 H         -1.8936404665       -2.1162185548        2.8877951848
 H         -0.2549094813       -5.6007372440       -1.0920857686
 H          0.1822954646       -3.9329035826       -1.4788047233
 H         -2.1743378953       -4.7100070991        0.2919837295
 H         -2.2822828584       -4.4543207031       -1.4589951907
 O         -2.3173092389       -2.1028278764       -1.5450368930
 C         -2.6081974532       -0.7501394760       -1.6029823688
 O         -2.8927625961       -0.3335792337       -2.7460939826
 O         -2.1243557001        0.0738242693        1.8898245008
 C         -2.9166567453        1.4674698362       -0.5068178253
 C         -1.7529694515        2.3047071606       -0.0326997345
 C         -1.9059631666        3.4681131434        0.7112179811
 C         -0.7967062337        4.1910019514        1.1146778222
 C          0.4806545279        3.7642038120        0.8016433689
 C          0.6437308853        2.6079819801        0.0475673484
 C         -0.4696432769        1.9041062227       -0.3794522857
 H         -0.3326362071        1.0076611839       -0.9664259082
 N          1.9280105429        2.1408797369       -0.3054898004
 S          2.2131525066        0.4936334806       -0.0292807412
 O          1.5749471243       -0.2807794747       -1.0639557801
 O          1.8771662056        0.1666968315        1.3371722948
 C          3.9816499294        0.4409762487       -0.2531495085
 C          4.8103456049        0.3923190440        0.8513948036
 C          6.1832770214        0.3852485788        0.6595784814
 C          6.7006841721        0.4303348852       -0.6261030824
 C          5.8558513447        0.4780162198       -1.7253658533
 C          4.4825521734        0.4838131029       -1.5403552145
 H          3.7862394794        0.5115601557       -2.3623873205
 H          6.2612621278        0.5104626995       -2.7237454353
 H          7.7691323956        0.4259433184       -0.7730504613
 H          6.8421054190        0.3448758883        1.5119466104
 H          4.3612120795        0.3514711281        1.8307680048
 H          2.6557088125        2.6827508054        0.1446621071
 H          1.3449312171        4.3176674218        1.1372651233
 H         -0.9288323822        5.0912463457        1.6956309337
 H         -2.8935010606        3.8040814006        0.9825032391
 H         -3.0767355021        1.6821405812       -1.5745650462
 C         -4.2020303407        1.7490327174        0.2452760618
 C         -5.1328223070        2.8282155860       -0.2181057191
 C         -5.5064848348        1.3884967976       -0.3976571309
 H         -6.2890709023        0.9744607307        0.2200251471
 H         -5.4655687425        0.9669392862       -1.3917619192
 H         -5.6648989114        3.4038686370        0.5242545896
 H         -4.8507252115        3.3891653638       -1.0962971779
 H         -4.1034904331        1.5756330626        1.3108813544
