  62
        -98.94351698
 C         -1.8671771247       -0.8843058525       -0.5537631786
 C         -3.2062295134       -1.2699805530       -0.3102500842
 C         -4.2046227471       -0.1982635509       -0.3989817220
 C         -3.8168714483        1.0513845470       -0.7133982352
 C         -4.7197131307        2.2456038859       -0.8651695975
 C         -5.0536367074        2.9480008396        0.4580135932
 C         -6.0224995852        2.1927437795        1.3687032583
 H         -6.3365647472        2.8882079582        2.1496707454
 H         -6.9124908971        1.9169993054        0.8020896073
 C         -5.4248466636        0.9439763493        2.0320612672
 H         -5.6870621219        0.9339273974        3.0925041308
 H         -4.3346639769        0.9871496333        1.9733964666
 C         -5.9011354315       -0.3806870490        1.4356332471
 H         -5.3893483813       -1.1945916911        1.9558698061
 H         -6.9737818136       -0.4949678861        1.6072350808
 C         -5.6275318240       -0.5322071875       -0.0665589060
 H         -5.7974527988       -1.5760398360       -0.3419963254
 H         -6.3106165064        0.0956250558       -0.6383295525
 H         -4.1227860653        3.1405762635        0.9965876214
 H         -5.5000962660        3.9139380743        0.2108368873
 H         -5.6428126426        1.9471350543       -1.3628192269
 H         -4.1920931052        2.9543544993       -1.5069952800
 O         -2.5198790240        1.3780120898       -0.9556743801
 C         -1.5107138319        0.4281463283       -0.8644612309
 O         -0.3687986051        0.8698338817       -1.0829304937
 O         -3.5493418858       -2.4505012876       -0.0311360018
 C         -0.7709958915       -1.9298695903       -0.4690038507
 C          0.2675206667       -1.5180657788        0.5445832080
 C         -0.1518199873       -1.0690367982        1.7943027583
 C          0.7631670358       -0.6680989377        2.7484442136
 C          2.1212110113       -0.7168166345        2.4846673756
 C          2.5517960223       -1.1716123382        1.2461216825
 C          1.6284324522       -1.5715767778        0.2865814330
 H          1.9826677381       -1.9220206303       -0.6703808113
 N          3.9339097639       -1.2465981440        0.9785501293
 S          4.8483393246        0.1552265912        1.0044302908
 O          6.1923724699       -0.2598142943        0.6736097705
 O          4.6746632610        0.8079072597        2.2764234417
 C          4.1945208462        1.1679554957       -0.3102416213
 C          2.9584811035        1.7604238097       -0.1449542241
 C          2.4236505174        2.4955212919       -1.1905338897
 C          3.1331424436        2.6279303948       -2.3741999935
 C          4.3760732453        2.0310583364       -2.5230751928
 C          4.9113492548        1.2865534004       -1.4847304354
 H          5.8711091309        0.8006454090       -1.5568835165
 H          4.9242071933        2.1384517352       -3.4454646223
 H          2.7100692942        3.1986398190       -3.1860696874
 H          1.4447423132        2.9328197505       -1.0824542374
 H          2.4261603191        1.6381675245        0.7844099803
 H          4.1496529307       -1.7627388435        0.1367825575
 H          2.8477636649       -0.3930043896        3.2116471293
 H          0.4185658429       -0.3170583373        3.7097719443
 H         -1.2120248243       -1.0319418643        2.0060585335
 H         -1.2645996701       -2.8425830090       -0.1027509472
 C         -0.2040830290       -2.2038029014       -1.8465616814
 C          0.3608715840       -3.5517580138       -2.1799134623
 C         -0.9509295078       -3.1233721133       -2.7638569885
 H         -0.9950956260       -2.8802366233       -3.8148323914
 H         -1.8549328557       -3.5754841866       -2.3827854178
 H          1.2173644451       -3.6060552384       -2.8352899440
 H          0.3485629510       -4.3050464340       -1.4066263904
 H          0.2603622055       -1.3277539996       -2.2863842176
