  62
        -98.94027429
 C          2.0098633921        0.0950786800       -0.4780341609
 C          2.8166386288       -0.5468417958        0.4943411838
 C          4.1453082370        0.0474242719        0.7085400989
 C          4.5043568027        1.1605577031        0.0460577914
 C          5.8088590586        1.8968195763        0.1877706428
 C          6.9482189683        1.3192405901       -0.6631348139
 C          7.5161145534       -0.0132519865       -0.1725262969
 H          8.4408641903       -0.1900541369       -0.7254819497
 H          7.7793399888        0.0718656261        0.8822574764
 C          6.5814091000       -1.2136351626       -0.3770719554
 H          7.1472424523       -2.0478049490       -0.7981181347
 H          5.8082770220       -0.9526178772       -1.1035147537
 C          5.9105647672       -1.7193319170        0.9001545282
 H          6.6694217824       -2.1072398828        1.5832607186
 H          5.2441838158       -2.5437388986        0.6341186039
 C          5.0825957214       -0.6606044234        1.6400092988
 H          4.4790334339       -1.1655598893        2.3980846718
 H          5.7404281210        0.0535023945        2.1347894737
 H          7.7562042010        2.0545456014       -0.6673234212
 H          6.5949423151        1.2088115055       -1.6910700811
 H          6.1085990425        1.9138268435        1.2360789345
 H          5.6227087359        2.9229245981       -0.1369534790
 O          3.6811524969        1.7758396146       -0.8450538975
 C          2.4358303708        1.2495404125       -1.1406968994
 O          1.8024022097        1.8909295862       -2.0045105986
 O          2.4686826090       -1.5549375927        1.1586749603
 C          0.6249051533       -0.3958596525       -0.8669162914
 C         -0.4233207260        0.2122388509        0.0280684587
 C         -0.3285268047        0.1210252997        1.4133084452
 C         -1.3036916056        0.6760961399        2.2216676025
 C         -2.3933971314        1.3260353617        1.6682920994
 C         -2.4987064356        1.4187471018        0.2874402197
 C         -1.5169550557        0.8634122727       -0.5229257245
 H         -1.5966576599        0.9531686286       -1.5980277022
 N         -3.6273713820        2.0497810614       -0.2765775384
 S         -5.1027302317        1.3392454989        0.0945461001
 O         -6.0191595369        1.7920185151       -0.9268086126
 O         -5.4541156290        1.6579708702        1.4543889011
 C         -4.7858274038       -0.4078007057       -0.0696192671
 C         -4.7865711641       -0.9558796340       -1.3371703285
 C         -4.4439377860       -2.2892856957       -1.4914196098
 C         -4.0936541507       -3.0442361055       -0.3822568440
 C         -4.0993238037       -2.4794896056        0.8833575663
 C         -4.4482523134       -1.1481838377        1.0453562980
 H         -4.4681272384       -0.6739735631        2.0125968380
 H         -3.8267934585       -3.0697353732        1.7433271218
 H         -3.8112135823       -4.0773702349       -0.5058398694
 H         -4.4412894920       -2.7328779814       -2.4742137919
 H         -5.0657337032       -0.3354602770       -2.1740208644
 H         -3.5520161768        2.1800082373       -1.2756985852
 H         -3.1674089899        1.7568736246        2.2828189113
 H         -1.2157971408        0.6012267949        3.2950022937
 H          0.5144088492       -0.3958784160        1.8458901724
 H          0.4594074744       -0.0030416983       -1.8825838642
 C          0.5246380986       -1.9142820756       -0.9457734913
 C         -0.3460450295       -2.7366351222       -0.0481118685
 C         -0.7262172483       -2.5447399932       -1.4830972423
 H         -0.6352360004       -3.3772447741       -2.1637829392
 H         -1.5593392244       -1.8898983189       -1.6916305555
 H          0.0335420043       -3.6961111045        0.2675207160
 H         -0.9316168784       -2.2308278434        0.7031251578
 H          1.4636063576       -2.3662790541       -1.2468670484
