  62
        -98.93951890
 C         -2.6188006081       -1.2390937162        0.0931103838
 C         -2.7929513415       -0.2612523009       -0.9154885569
 C         -4.1628304856        0.2457921606       -1.0820338249
 C         -5.1478250988       -0.2467823868       -0.3088457595
 C         -6.5742393085        0.2191240008       -0.3360130402
 C         -6.8067305684        1.3515286529        0.6740297090
 C         -5.7750337319        2.4765174621        0.5888407373
 H         -6.0565984075        3.2325163102        1.3251603119
 H         -4.7975915966        2.0887795543        0.8856186629
 C         -5.6599874783        3.1291216825       -0.7958287322
 H         -5.6275528372        4.2133751635       -0.6697713683
 H         -6.5457414242        2.8983310556       -1.3887893278
 C         -4.4075238804        2.7348358447       -1.5810800848
 H         -3.5220587007        2.8764290539       -0.9556920743
 H         -4.3154187343        3.4110345255       -2.4352280553
 C         -4.3860518181        1.3017415812       -2.1276598991
 H         -5.3042934190        1.1062564704       -2.6851105235
 H         -3.5403044889        1.2227546080       -2.8169477651
 H         -7.8062003898        1.7591908130        0.5121244457
 H         -6.7707151284        0.9299445153        1.6813119730
 H         -6.8219455789        0.5570431384       -1.3402717389
 H         -7.2164827770       -0.6241888739       -0.0767467727
 O         -4.9442465904       -1.2036218540        0.6330572610
 C         -3.6771176803       -1.7115076126        0.8681189066
 O         -3.6231634322       -2.5639989007        1.7782085042
 H          1.3144136140       -1.3467822976       -0.5808142057
 C          0.9922940099       -0.6103379965        0.1389342758
 C         -0.2726204140       -0.6979287660        0.6974663108
 C         -0.6511561455        0.2595669324        1.6349577241
 C          0.2032719356        1.2883057558        1.9807312856
 C          1.4572668901        1.3854424342        1.4034343207
 C          1.8519161099        0.4283078497        0.4798300154
 N          3.1193781762        0.5225018539       -0.1213005056
 S          4.4255375812        0.9399277514        0.8644670096
 O          4.3913650930        0.1668026411        2.0860349249
 O          4.4399509851        2.3720807300        1.0272014649
 C          5.7950880509        0.4330257217       -0.1567352943
 C          6.2419194335        1.2900632721       -1.1445477964
 C          7.2905563781        0.8870323639       -1.9558984588
 C          7.8705855659       -0.3588515568       -1.7680270624
 C          7.4115115801       -1.2076723106       -0.7720286785
 C          6.3623813610       -0.8114290093        0.0424388333
 H          5.9796994195       -1.4345153572        0.8349144090
 H          7.8663542773       -2.1743059255       -0.6267444871
 H          8.6875491726       -0.6693760594       -2.4000411268
 H          7.6521709622        1.5447156061       -2.7297607180
 H          5.7665751903        2.2514571341       -1.2479729720
 H          3.3324682368       -0.2835890640       -0.6928709855
 H          2.1337998347        2.1837165209        1.6630769726
 H         -0.1084536102        2.0251956091        2.7063527434
 H         -1.6309538597        0.1870093901        2.0886730175
 C         -1.2377521956       -1.8090243282        0.3592589579
 H         -1.3390626156       -2.4504035778        1.2473981264
 C         -0.7987740285       -2.6649434347       -0.8110398487
 C          0.1295316226       -3.8219896887       -0.5977553776
 C         -1.3153722735       -4.0676150530       -0.9100380123
 H         -1.5759161774       -4.4541156602       -1.8838525078
 H         -1.9621239457       -4.4128061222       -0.1163684537
 H          0.4688970312       -4.0120568518        0.4094467482
 H          0.8599842088       -4.0460246241       -1.3607784288
 H         -0.7124125800       -2.0972108063       -1.7305438968
 O         -1.8561311635        0.1654932720       -1.6394802781
