  62
        -98.93760843
 C         -1.8761979166       -1.3369902847       -0.2480956717
 C         -1.8668063755        0.0299030712        0.1095224532
 C         -3.1424048200        0.5995613060        0.5914367654
 C         -4.2193745450       -0.2029601557        0.6804993196
 C         -5.6181324466        0.1538443246        1.1095379449
 C         -6.3943092135        0.9189921572        0.0264905498
 C         -5.6121554341        2.0421334031       -0.6486908785
 H         -4.7143744873        1.6259687408       -1.1088379320
 H         -6.2343484928        2.4415048421       -1.4539767965
 C         -5.2250161106        3.2041696773        0.2631553892
 H         -6.1283743511        3.6265876227        0.7086668908
 H         -4.7758721064        3.9750190667       -0.3682486680
 C         -4.2358782061        2.8755436922        1.3843177373
 H         -3.8535552929        3.8254614602        1.7694177399
 H         -4.7320854662        2.3846098140        2.2173366873
 C         -3.0227592038        2.0631656332        0.9428695633
 H         -2.5658985424        2.5480362721        0.0726538696
 H         -2.2633006676        2.1123092808        1.7327050101
 H         -6.6885690866        0.2050765709       -0.7468935091
 H         -7.3035177945        1.3229274503        0.4752567826
 H         -5.5933561995        0.7173216583        2.0375618061
 H         -6.1346192829       -0.7883075644        1.3069039912
 O         -4.1752764648       -1.5226998704        0.3348502240
 C         -3.0229100538       -2.1204091842       -0.1357308433
 O         -3.1393760783       -3.3330301513       -0.4091556148
 O         -0.8432242689        0.7560855408        0.0306194167
 C         -0.6131986767       -1.9924202046       -0.7731039185
 C          0.5197610604       -1.8513002196        0.2146906384
 C          0.2668001199       -1.9965805443        1.5757747524
 C          1.2812565565       -1.8664649576        2.5051553930
 C          2.5781110666       -1.6043418713        2.0989489915
 C          2.8459931326       -1.4750531953        0.7437130923
 C          1.8229188242       -1.5999866798       -0.1890880176
 H          2.0510060840       -1.4934438089       -1.2385247117
 N          4.1713233549       -1.2188459415        0.3291404542
 S          4.8204545942        0.2797196622        0.7075238080
 O          6.1764032422        0.2555642179        0.2079928878
 O          4.6601198722        0.5150185041        2.1189892768
 C          3.8537758759        1.4412627057       -0.2395845023
 C          4.4045770860        2.0115342074       -1.3708916732
 C          3.6239555453        2.8566067906       -2.1425226657
 C          2.3063454753        3.0992514966       -1.7827882143
 C          1.7660967993        2.5142217189       -0.6479801538
 C          2.5470329225        1.6801363829        0.1361726712
 H          2.1448868465        1.2134381141        1.0206400025
 H          0.7344021201        2.6666688356       -0.3756323374
 H          1.6940921177        3.7462490333       -2.3915972131
 H          4.0402482555        3.3156667272       -3.0250102773
 H          5.4295052627        1.7855322208       -1.6176162033
 H          4.3223801082       -1.3979992382       -0.6544100049
 H          3.3778680809       -1.4811937277        2.8104830326
 H          1.0618580855       -1.9727979173        3.5570785644
 H         -0.7441675078       -2.2046142737        1.8997533087
 H         -0.8464034281       -3.0632120459       -0.8719258164
 C         -0.2811778150       -1.4362153005       -2.1439108006
 C          0.3729638781       -2.2993737118       -3.1798820940
 C         -1.0681484009       -1.9151411879       -3.3252212510
 H         -1.3396701301       -1.2025227739       -4.0893863827
 H         -1.8210969771       -2.6688192984       -3.1443785553
 H          1.0897952023       -1.8487687902       -3.8502386398
 H          0.5979801037       -3.3212066092       -2.9132333886
 H         -0.0173480034       -0.3850041429       -2.1101611215
