  62
        -98.94083733
 C         -1.5934044588       -0.6432139882        0.3884826491
 C         -2.7046699028       -0.9003938229       -0.4526261287
 C         -3.6384840171        0.2232621791       -0.6289889497
 C         -3.3771678063        1.4162714763       -0.0675007209
 C         -4.2169751555        2.6587205525       -0.1898378516
 C         -5.3850013335        2.7231569736        0.8038300397
 C         -6.5453862929        1.7722214841        0.5075559286
 H         -7.3780515262        2.0743722347        1.1459327545
 H         -6.8651755642        1.9017260267       -0.5268467746
 C         -6.2343705609        0.2921546067        0.7707241695
 H         -5.3471839307        0.2133984808        1.4035511973
 H         -7.0609490046       -0.1612343398        1.3226349119
 C         -6.0186991065       -0.5441018016       -0.4907925598
 H         -5.7691887426       -1.5641391683       -0.1873161595
 H         -6.9456283877       -0.5825308072       -1.0672945762
 C         -4.8964267513       -0.0324862023       -1.4032274686
 H         -4.6788496175       -0.8050541520       -2.1446555407
 H         -5.2161172834        0.8709767282       -1.9217805263
 H         -5.0011950957        2.5274808186        1.8078665875
 H         -5.7692643362        3.7457312281        0.7890743948
 H         -3.5529876385        3.5033653587        0.0058732878
 H         -4.5988523376        2.7448989395       -1.2074702649
 O         -2.2659752546        1.6399883978        0.6847248363
 C         -1.3717212025        0.6169063493        0.9498151137
 O         -0.4225007888        0.9488498452        1.6888471534
 O         -2.9233793292       -1.9917271104       -1.0355132008
 C         -0.5410893866       -1.6876793760        0.7241988951
 C          0.5819408867       -1.6235657299       -0.2784015296
 C          0.3324765020       -1.7076165499       -1.6454803125
 C          1.3736862375       -1.6307441823       -2.5513612983
 C          2.6753203722       -1.4482121349       -2.1159915493
 C          2.9335933297       -1.3550877123       -0.7540904941
 C          1.8880293376       -1.4547417559        0.1547467282
 H          2.1042570871       -1.3777863428        1.2095455375
 N          4.2450419814       -1.1740230401       -0.2808187315
 S          4.5566513583        0.0333319368        0.8388099812
 O          5.9984564310        0.1499594429        0.8468093318
 O          3.9394415445       -0.2928795777        2.0975618200
 C          3.8403431786        1.5007527146        0.1221042080
 C          4.6289789690        2.2486949508       -0.7321778567
 C          4.0823503891        3.3569195768       -1.3568351929
 C          2.7560443697        3.6924954768       -1.1272706545
 C          1.9788140975        2.9303939491       -0.2698716704
 C          2.5205285898        1.8226338745        0.3646106376
 H          1.9214463214        1.2290437797        1.0373226636
 H          0.9460151261        3.1795927427       -0.0809589741
 H          2.3260036032        4.5529422458       -1.6154564878
 H          4.6875484755        3.9536251490       -2.0201776764
 H          5.6569085825        1.9565834302       -0.8750115028
 H          4.9443587333       -1.1560674056       -1.0099626507
 H          3.4862571090       -1.3797263449       -2.8250589505
 H          1.1697652833       -1.7039885953       -3.6088565186
 H         -0.6840521339       -1.8388134346       -1.9846940226
 H         -0.1261287706       -1.3800594381        1.6981762405
 C         -1.1115267814       -3.0875325079        0.9038020649
 C         -0.8175900890       -4.2304190759       -0.0160216472
 C         -0.2082439761       -4.1989088997        1.3512080729
 H         -0.5663301094       -4.8899735307        2.0993300505
 H          0.8468327132       -3.9779074164        1.4240351519
 H         -1.6172548063       -4.9277339982       -0.2137047802
 H         -0.1741137548       -4.0556542691       -0.8634639606
 H         -2.1054637740       -3.0673854173        1.3386334182
