  62
        -98.93981240
 C          1.9769544295        0.8043282895       -0.2220773999
 C          2.8691554996        0.5070086794        0.8412068900
 C          3.4280102094       -0.8489926606        0.8745667500
 C          3.0455849693       -1.7346629506       -0.0627873800
 C          3.5684271891       -3.1366521006       -0.1823299900
 C          4.7943295290       -3.1959432407       -1.1046578702
 C          5.8615016291       -2.1499968008       -0.7816378903
 H          6.6891780491       -2.3050980109       -1.4770901604
 H          5.4558012192       -1.1555336008       -0.9812705902
 C          6.3871392693       -2.2029112509        0.6596770897
 H          6.1431550492       -3.1668928809        1.1072843897
 H          7.4758170893       -2.1208855610        0.6380838096
 C          5.8738473395       -1.0806179808        1.5637011997
 H          6.4681397696       -1.0843870909        2.4812041897
 H          6.0315352195       -0.1157547008        1.0753993097
 C          4.3989219095       -1.1758639407        1.9745045799
 H          4.1941467495       -2.1659907907        2.3866799499
 H          4.2227178597       -0.4332541307        2.7580809899
 H          4.4603247189       -3.0383031607       -2.1328563101
 H          5.2286026189       -4.1951165408       -1.0374698402
 H          3.8268998092       -3.5064785406        0.8081091399
 H          2.7776249890       -3.7625926606       -0.5994733999
 O          2.1670368292       -1.4287912405       -1.0494538399
 C          1.6135486993       -0.1583973305       -1.1654537299
 O          0.8462338192       -0.0449493904       -2.1416021298
 H         -0.7184998206        0.5233466798       -0.2434312596
 C         -0.8685124004        1.3799884598        0.3960327504
 C          0.1285203097        2.3364998397        0.5225901003
 C         -0.0948188901        3.4322488297        1.3486335903
 C         -1.2936771101        3.5719639698        2.0236935204
 C         -2.2895562202        2.6232166199        1.8872494505
 C         -2.0710326403        1.5143769899        1.0751734405
 N         -3.0520201604        0.5167265400        0.9748067706
 S         -3.1159821307       -0.5001687400       -0.3678455294
 O         -2.1166321807       -1.5276804701       -0.2155698795
 O         -3.0920173507        0.2751746200       -1.5870982094
 C         -4.7398601707       -1.2003332699       -0.1306911592
 C         -5.8136925207       -0.6641619998       -0.8160880491
 C         -7.0777542007       -1.1912055097       -0.6023304690
 C         -7.2466293008       -2.2381323797        0.2911837311
 C         -6.1595266407       -2.7670969898        0.9711752709
 C         -4.8929207107       -2.2454128799        0.7607064308
 H         -4.0171888307       -2.6291073199        1.2579135207
 H         -6.2937944207       -3.5830881297        1.6627607310
 H         -8.2310280308       -2.6465495696        0.4564587912
 H         -7.9236406608       -0.7842235696       -1.1324724289
 H         -5.6316498707        0.1433308002       -1.5068847191
 H         -3.9697434804        0.8281853501        1.2611110107
 H         -3.2264783801        2.7291553600        2.4120627106
 H         -1.4556900999        4.4282693298        2.6603000304
 H          0.6829571699        4.1717155796        1.4660832602
 C          1.4237341896        2.2166435396       -0.2476486498
 H          2.1732488297        2.8301304295        0.2730903901
 C          1.2268455295        2.7836185496       -1.6406433298
 C          1.3364009096        4.2621037296       -1.8567696498
 C          2.4013750695        3.3468625295       -2.3804413100
 H          2.4669045494        3.1757161695       -3.4442387700
 H          3.3573148195        3.3363593094       -1.8770446200
 H          0.6651544396        4.7269376996       -2.5622793198
 H          1.5773163598        4.8792928795       -1.0048917699
 H          0.4871640094        2.2427834396       -2.2179492898
 O          3.1922506097        1.3514791594        1.7204741600
