  62
        -98.94088887
 C         -2.2854046732       -0.9279425148       -0.2282720088
 C         -3.6045819517       -1.1987811833        0.2094609983
 C         -4.6506830638       -0.3253010053       -0.3328645492
 C         -4.3229649572        0.6441910068       -1.2064537655
 C         -5.2792556004        1.6000560121       -1.8669277336
 C         -5.6186504529        2.8303942910       -1.0143018166
 C         -6.5348699046        2.5608147900        0.1799737980
 H         -6.8629614688        3.5314673277        0.5570456665
 H         -7.4225787287        2.0258407030       -0.1586204110
 C         -5.8696877654        1.7855156562        1.3258133349
 H         -4.7838734307        1.8267502065        1.2108186863
 H         -6.1085673398        2.2659032740        2.2773088488
 C         -6.3012216789        0.3230415945        1.4360332375
 H         -7.3644000037        0.2723246467        1.6806848413
 H         -5.7445623817       -0.1376226611        2.2560833897
 C         -6.0513893885       -0.5068127422        0.1696843104
 H         -6.1802133396       -1.5625008115        0.4201174454
 H         -6.7709493390       -0.2396182794       -0.6036670081
 H         -6.1117589085        3.5535966635       -1.6679265655
 H         -4.6860493684        3.2799855491       -0.6652634164
 H         -6.1970145636        1.0752098143       -2.1333658516
 H         -4.7933090480        1.9400136139       -2.7840106399
 O         -3.0440885162        0.8613841501       -1.6160592205
 C         -1.9924067375        0.1025266146       -1.1210899891
 O         -0.8729829592        0.4380515159       -1.5549070921
 O         -3.8922266118       -2.1236346849        1.0153114510
 C         -1.1468599378       -1.7743530079        0.3134944160
 C         -0.1893196945       -0.8914353064        1.0745493999
 C         -0.6787727669       -0.1683129802        2.1603950244
 C          0.1459031177        0.6767223848        2.8755139448
 C          1.4745549451        0.8242994204        2.5168000950
 C          1.9762569246        0.1008388967        1.4419823138
 C          1.1474622949       -0.7607344325        0.7347382785
 H          1.5571974118       -1.3028745719       -0.0996651812
 N          3.3383918995        0.2036331172        1.0967037316
 S          3.7909316119        0.3570782184       -0.5242317731
 O          3.2232966419        1.5602843304       -1.0924750718
 O          3.5258621830       -0.8783847492       -1.2143015069
 C          5.5518628252        0.5582883369       -0.3163531624
 C          6.1067431385        1.8225071617       -0.3729250862
 C          7.4722751221        1.9653910278       -0.1819085955
 C          8.2550896248        0.8476998077        0.0642708228
 C          7.6841231403       -0.4153406202        0.1168940297
 C          6.3198836732       -0.5648304923       -0.0745151449
 H          5.8333634238       -1.5258231224       -0.0511186312
 H          8.2964670207       -1.2823508833        0.3054082999
 H          9.3172811004        0.9612852890        0.2129929840
 H          7.9190002541        2.9456358398       -0.2260344924
 H          5.4600841091        2.6611507472       -0.5759800486
 H          3.8017771933        0.9280121091        1.6313257589
 H          2.1183786200        1.4939552505        3.0673006376
 H         -0.2480263819        1.2328471068        3.7130375385
 H         -1.7209355027       -0.2762078414        2.4295939123
 H         -1.6151524028       -2.4685076686        1.0271590107
 C         -0.4967098037       -2.5788729687       -0.7906081944
 C          0.2329205080       -3.8456355402       -0.4611862747
 C         -1.0851949903       -3.9029630430       -1.1715450952
 H         -1.0994646589       -4.1786442089       -2.2153426919
 H         -1.9507925725       -4.2378964277       -0.6187605100
 H          1.1292055975       -4.0789557571       -1.0158432213
 H          0.2638324555       -4.1468749355        0.5749794041
 H         -0.1044395706       -1.9583181507       -1.5894544609
