  62
        -98.94698848
 C         -2.3223279515       -0.3526494494       -0.4558729101
 C         -1.4269011710        0.5054663701       -1.1377596101
 C         -1.5794655804        1.9439786202       -0.8742354404
 C         -2.5121775803        2.3651960908       -0.0030089406
 C         -2.7430101096        3.7947385010        0.3912279791
 C         -1.9188841696        4.1797434508        1.6270696891
 C         -0.4393527298        3.8053464101        1.5318020193
 H          0.0475983603        4.1739388801        2.4380083393
 H         -0.3345136003        2.7171976001        1.5397411895
 C          0.2823992506        4.3681808396        0.2995034293
 H         -0.2891458090        5.1961432597       -0.1228588609
 H          1.2493526308        4.7659667592        0.6149722993
 C          0.5617082202        3.3272046892       -0.7858830005
 H          1.2921252405        3.7455827287       -1.4839679005
 H          1.0122091598        2.4466077491       -0.3211302503
 C         -0.6565982199        2.8794098096       -1.6042692405
 H         -1.2019294794        3.7553216598       -1.9625535207
 H         -0.2903344501        2.3242573593       -2.4726498304
 H         -2.0125217891        5.2569336109        1.7800728589
 H         -2.3427144699        3.6745659212        2.4982460492
 H         -2.4850572493        4.4418507507       -0.4450156910
 H         -3.8029180396        3.9186012015        0.6213975690
 O         -3.3458085807        1.5148435713        0.6490616295
 C         -3.2627925613        0.1489191312        0.4491519698
 O         -4.0838217817       -0.5134652383        1.1174529298
 O         -0.5376996711        0.1176391295       -1.9427653400
 C         -2.3039836222       -1.8696665694       -0.5809455598
 C         -1.3060458825       -2.4528510997        0.3921678704
 C         -1.6801628831       -3.4321569194        1.3039113306
 C         -0.7676726734       -3.9199478096        2.2228198608
 C          0.5182931469       -3.4139172702        2.2722570408
 C          0.9020735374       -2.4319948805        1.3645707906
 C          0.0018508577       -1.9901591803        0.4082309005
 H          0.3104170881       -1.2430483806       -0.3016111296
 N          2.1909045076       -1.8785718211        1.4043055907
 S          2.4243650184       -0.2121847912        1.2924435704
 O          3.3231155785        0.1119762086        2.3841231304
 O          1.1699357188        0.4967879593        1.2728443301
 C          3.3240481287       -0.0307483520       -0.2351358096
 C          4.7018184986       -0.1298696926       -0.1720450294
 C          5.4415102088       -0.0210069831       -1.3373829694
 C          4.7940926990        0.1836488469       -2.5466986795
 C          3.4127289490        0.2811172976       -2.5937574096
 C          2.6649641589        0.1717035881       -1.4303683597
 H          1.5884751789        0.2455530886       -1.4573866998
 H          2.9027117492        0.4402646876       -3.5304923297
 H          5.3676188591        0.2691452265       -3.4562805794
 H          6.5164259287       -0.0953285736       -1.2997729493
 H          5.1631084984       -0.2752399426        0.7907902206
 H          2.7727444574       -2.2545323112        2.1393745108
 H          1.2203056166       -3.7680856604        3.0124756409
 H         -1.0677670738       -4.6834204193        2.9247351709
 H         -2.6974062032       -3.7954511189        1.3040875106
 H         -3.3036724223       -2.2059756089       -0.2720993098
 C         -2.0451993923       -2.3721172598       -1.9874517196
 C         -2.5362891228       -3.7336833097       -2.3734086394
 C         -3.1930095322       -2.5111288495       -2.9395582497
 H         -3.0312413320       -2.2683270997       -3.9788347998
 H         -4.1763019321       -2.2461201190       -2.5780965499
 H         -1.9219045031       -4.3357308301       -3.0248866393
 H         -3.0781114232       -4.3009617393       -1.6317731094
 H         -1.0989022221       -2.0427046503       -2.3942763296
