  62
        -98.94031484
 C         -1.8751270630       -1.3149825927        0.2616681434
 C         -1.6773534325        0.0592879269        0.0007164376
 C         -2.8253481834        0.9467494675        0.2634007172
 C         -3.9687563406        0.4147783110        0.7294747265
 C         -5.2638688791        1.1254749837        1.0110359478
 C         -6.1938449447        1.0684259926       -0.2128776686
 C         -5.9962247997        2.1959288937       -1.2252969082
 H         -6.6205758124        1.9671925692       -2.0921128794
 H         -6.3619217239        3.1313157834       -0.7964678390
 C         -4.5554516444        2.4047240899       -1.6987451238
 H         -4.0886245955        1.4373684866       -1.8936739711
 H         -4.5897223960        2.9429640808       -2.6480608760
 C         -3.7028193683        3.2055794514       -0.7034564103
 H         -4.3559668261        3.6555301928        0.0439156040
 H         -3.2167154532        4.0312846247       -1.2273243617
 C         -2.5910069553        2.4083394039       -0.0066126037
 H         -1.6868607093        2.4320815922       -0.6235816501
 H         -2.3392945195        2.9002587051        0.9389903781
 H         -6.0443480038        0.1028756649       -0.7030149334
 H         -7.2292947856        1.1018491006        0.1320139513
 H         -5.7399790634        0.5881662476        1.8338724372
 H         -5.0832165870        2.1505676232        1.3202498261
 O         -4.1143052802       -0.9181559870        0.9700722679
 C         -3.0841557180       -1.8119520694        0.7466639966
 O         -3.3578503248       -2.9981647903        1.0194775466
 H          1.8629265860       -1.8771062466       -0.8305608049
 C          1.7193138853       -1.7279007729        0.2259352295
 C          0.4718132920       -1.8934721567        0.8053343758
 C          0.3404775562       -1.6869359743        2.1771244613
 C          1.4262182293       -1.3122602898        2.9435708487
 C          2.6663956701       -1.1255606784        2.3568710683
 C          2.8099856824       -1.3340984611        0.9914555789
 N          4.0624455430       -1.1767614235        0.3682894524
 S          4.2270285213       -0.1235764321       -0.9238944356
 O          3.3679454592       -0.5309455812       -2.0042254781
 O          5.6464352962       -0.1142902585       -1.2056518751
 C          3.7445732121        1.4677843924       -0.2772168038
 C          4.7397573472        2.3447907559        0.1112450552
 C          4.3848012716        3.5612613984        0.6700356219
 C          3.0446279236        3.8752845128        0.8405643798
 C          2.0599828992        2.9815485019        0.4502195671
 C          2.4059402858        1.7633301147       -0.1151855388
 H          1.6461345366        1.0623083642       -0.4226729708
 H          1.0147600498        3.2137560797        0.5800258388
 H          2.7654142563        4.8208229437        1.2784489338
 H          5.1505982273        4.2576093480        0.9719630536
 H          5.7677556496        2.0589653022       -0.0435281295
 H          4.8209969096       -1.0203480017        1.0176231352
 H          3.5156387512       -0.8259277491        2.9522206508
 H          1.3067919410       -1.1567058902        4.0051616504
 H         -0.6314227195       -1.8241587928        2.6323824839
 C         -0.7476493509       -2.3011213849        0.0150579222
 H         -1.0993761704       -3.2682469543        0.4035461328
 C         -0.4890270040       -2.4413189121       -1.4704245230
 C          0.0847382867       -3.7130020827       -2.0162557776
 C         -1.3501196914       -3.3661079544       -2.2745994495
 H         -1.6384253291       -3.0670760179       -3.2713204165
 H         -2.1142102467       -3.9173110826       -1.7454044080
 H          0.7860219849       -3.6499296191       -2.8349080697
 H          0.2958716044       -4.5070999502       -1.3159021286
 H         -0.1889869881       -1.5091666478       -1.9365305798
 O         -0.5940910256        0.5297550882       -0.4345520550
