  62
        -98.94133836
 C         -0.0448575149        1.9101696269        0.2896727786
 C          0.9563645833        1.2788309761        1.0586445071
 C          2.2208786757        0.9627244735        0.3688273338
 C          2.3527848595        1.2837793509       -0.9308554989
 C          3.5205095924        1.0334623269       -1.8525960594
 C          4.9272834751        1.2942311569       -1.2919836772
 C          5.7319630942        0.0173432091       -1.0407182647
 H          5.5321430503       -0.6827766692       -1.8548608684
 H          6.7956814547        0.2630427812       -1.0755821693
 C          5.4602075352       -0.6723726823        0.2949264180
 H          5.8873645908       -0.0755904164        1.1036048857
 H          5.9846440027       -1.6306175523        0.2842340975
 C          3.9840450467       -0.9245312717        0.6077516304
 H          3.4584514027       -1.2574102317       -0.2881584778
 H          3.9298569990       -1.7427117710        1.3291617167
 C          3.2711319013        0.2942589295        1.2145321113
 H          2.7435424962        0.0013070128        2.1274815668
 H          4.0078718482        1.0425851472        1.5194607616
 H          4.8596189798        1.8877277623       -0.3817877037
 H          5.4688275592        1.8918291883       -2.0271542431
 H          3.4463181666        0.0056543799       -2.2192989330
 H          3.3398624036        1.6791409445       -2.7154495131
 O          1.3592212388        1.8978389831       -1.6335594377
 C          0.1362683391        2.1985820144       -1.0621752211
 O         -0.6803354360        2.7278241745       -1.8408236839
 H         -1.2614861492       -0.3638700911        0.2735722910
 C         -2.1746259208        0.0710930511       -0.1036003754
 C         -2.4446668038        1.4086829743        0.1593953964
 C         -3.6313296705        1.9515532048       -0.3129892877
 C         -4.4979690983        1.1790961402       -1.0680374535
 C         -4.1935931717       -0.1325499475       -1.3808903145
 C         -3.0153343854       -0.6907197333       -0.8954495602
 N         -2.6719449723       -2.0193581754       -1.1797098258
 S         -1.0701828432       -2.4946886829       -1.2662169200
 O         -0.2060208096       -1.4552284932       -1.7764328866
 O         -1.1116656402       -3.7188368906       -2.0405297504
 C         -0.6596369628       -2.8989319482        0.4172186303
 C          0.4511445934       -2.3359676005        1.0107809206
 C          0.7532548474       -2.6707214925        2.3210677440
 C         -0.0554422077       -3.5610191178        3.0094402319
 C         -1.1650209831       -4.1241239454        2.3963036620
 C         -1.4728908176       -3.7920934883        1.0873396854
 H         -2.3237293446       -4.2082312386        0.5744160065
 H         -1.7908951424       -4.8165836580        2.9357956684
 H          0.1817839061       -3.8153365971        4.0304407530
 H          1.6095716141       -2.2221257420        2.7983389026
 H          1.0481119101       -1.6347951189        0.4481209566
 H         -3.2488047776       -2.4771688582       -1.8696274217
 H         -4.8542172614       -0.7204738770       -1.9996768498
 H         -5.4143328166        1.6133804099       -1.4383095049
 H         -3.8701348522        2.9822221327       -0.1083310667
 C         -1.3991284414        2.1882790417        0.9187641658
 H         -1.3376275205        1.7891037995        1.9419678586
 C         -1.6735639418        3.6748577191        0.9867475570
 C         -2.5779653040        4.2268580074        2.0470627210
 C         -1.1009111285        4.4660933616        2.1231470493
 H         -0.7255985166        5.4582612804        1.9222478763
 H         -0.5306700609        3.9255383508        2.8643002967
 H         -3.0141476054        3.5280229721        2.7444577039
 H         -3.2179431515        5.0592632860        1.7962799067
 H         -1.6840517681        4.1400615997        0.0073057842
 O          0.7994612903        0.9760709452        2.2732373871
