  62
        -98.94005168
 C          1.0077303980        1.6534089696        0.1257114111
 C          1.5189288045        0.6595591668        0.9897544736
 C          2.7391554685       -0.0412825212        0.5537512463
 C          3.2693464850        0.2619269855       -0.6446023453
 C          4.4923384421       -0.3206591734       -1.3059886397
 C          4.6096783120       -1.8530026809       -1.2801928077
 C          5.7345924233       -2.3594175271       -0.3759397615
 H          6.0325809706       -3.3543916864       -0.7140614139
 H          6.5982105884       -1.7017877781       -0.4951972600
 C          5.3780335077       -2.4628735125        1.1057655467
 H          4.6867872312       -3.2959757319        1.2517528035
 H          6.2949844174       -2.7012382343        1.6499428468
 C          4.7551733182       -1.2076121504        1.7204099094
 H          4.9288463933       -1.2446756866        2.7979844415
 H          5.2513450371       -0.3122055235        1.3484662594
 C          3.2395093170       -1.0992876738        1.4991989117
 H          2.7464429566       -0.8748037910        2.4506433428
 H          2.8360940461       -2.0647918748        1.1759725988
 H          3.6560548182       -2.2916446424       -0.9865281012
 H          4.8159391132       -2.1900725031       -2.2975468360
 H          5.3817528680        0.1275924517       -0.8567140591
 H          4.4513975943        0.0312895595       -2.3392208731
 O          2.7323311072        1.2170033907       -1.4567967981
 C          1.5861128807        1.9146383747       -1.1149347340
 O          1.1967922839        2.7197105386       -1.9822985386
 O          0.9715767744        0.3616789552        2.0874427603
 C         -0.2750931919        2.3671968764        0.5066847664
 C         -1.3985801376        1.9518810810       -0.4138945207
 C         -2.4056443786        2.8135061416       -0.8311312967
 C         -3.4203286959        2.3548726020       -1.6539495254
 C         -3.4692434990        1.0330490446       -2.0588446815
 C         -2.4687972994        0.1620407472       -1.6423765714
 C         -1.4479655156        0.6294063181       -0.8316844759
 H         -0.6631235401       -0.0507491915       -0.5411895502
 N         -2.4663364271       -1.1864169559       -2.0271552288
 S         -1.8993517586       -2.3573241378       -0.9764419192
 O         -0.4614048525       -2.3058431132       -0.8843308108
 O         -2.4513469687       -3.5904644210       -1.4973644539
 C         -2.6667195750       -1.9769963049        0.5884705144
 C         -4.0239303918       -2.2187415826        0.6932499176
 C         -4.6769431298       -1.8985681231        1.8712381250
 C         -3.9659653556       -1.3370500614        2.9216377709
 C         -2.6052407669       -1.1052604092        2.8028456793
 C         -1.9442275912       -1.4271499454        1.6268993497
 H         -0.8856519685       -1.2481317248        1.5194663510
 H         -2.0425221638       -0.6689795384        3.6128202776
 H         -4.4732822748       -1.0814082184        3.8385024344
 H         -5.7345596385       -2.0840124183        1.9669186200
 H         -4.5371006988       -2.6685366761       -0.1411935796
 H         -3.2865216198       -1.4929534134       -2.5285957842
 H         -4.2633808202        0.6791167525       -2.6979113250
 H         -4.1907562919        3.0369925607       -1.9797667447
 H         -2.3913025019        3.8450077005       -0.5195182681
 H         -0.5227907086        1.9994737594        1.5147604897
 C         -0.0708676283        3.8659793078        0.5724188301
 C         -0.8489757127        4.6939542135        1.5500573559
 C          0.6123246164        4.4496682314        1.7719410521
 H          1.3039297443        5.2654766587        1.6248378382
 H          0.9048226217        3.7669351119        2.5564600449
 H         -1.1611270951        5.6837931142        1.2528997102
 H         -1.5490392948        4.1829019695        2.1935131768
 H          0.1634529151        4.2959346604       -0.3945238614
