  62
        -98.93413579
 C         -1.9715078813       -1.3233937892        0.3893331401
 C         -2.5056991911       -0.5907079597       -0.6984452503
 C         -3.7626335111        0.1379994505       -0.4382574308
 C         -4.3041450912        0.1154521712        0.7906153592
 C         -5.5918738412        0.7413915915        1.2647830887
 C         -5.9074457210        2.1648765113        0.7856615580
 C         -4.6824442309        3.0685959011        0.5828635877
 H         -3.7954645210        2.6014689612        1.0146846780
 H         -4.8441857409        4.0095794214        1.1121613372
 C         -4.4195515608        3.3976506204       -0.8887793724
 H         -3.8029664107        4.2982519603       -0.9426341628
 H         -5.3724606407        3.6252794602       -1.3716554326
 C         -3.7016147608        2.3103380699       -1.6876014318
 H         -2.6605557208        2.2343771200       -1.3608743117
 H         -3.6832468607        2.6202152394       -2.7352575420
 C         -4.3221048409        0.9064169900       -1.6007709212
 H         -4.0275469309        0.3555024795       -2.4981241209
 H         -5.4077169909        0.9570175601       -1.5650012413
 H         -6.5676991511        2.6093341817        1.5323402877
 H         -6.4722253910        2.1201362009       -0.1444525020
 H         -5.5285247113        0.7283294020        2.3556533888
 H         -6.4152916712        0.0786978314        0.9826531590
 O         -3.7195896614       -0.5513557184        1.8266902295
 C         -2.5491057514       -1.2705944286        1.6590543400
 O         -2.1216321116       -1.8012993081        2.7044925503
 O         -1.9822013910       -0.5467966303       -1.8399420903
 C         -0.6946427314       -2.1366589094        0.2589445206
 C          0.3614057988       -1.3239630999       -0.4488806497
 C          0.9399170688       -1.6890378305       -1.6564235595
 C          1.8956336890       -0.8804265109       -2.2474557798
 C          2.3026775290        0.2957129294       -1.6461231103
 C          1.7408524589        0.6624191900       -0.4292617506
 C          0.7842458388       -0.1483760796        0.1608970698
 H          0.3393585988        0.1426864709        1.1054043696
 N          2.1665129990        1.8446346803        0.2008483289
 S          3.8127015190        2.1429270902        0.2591269389
 O          4.0120416690        2.9347237808        1.4531625885
 O          4.2399996492        2.7522813895       -0.9756140613
 C          4.5769454389        0.5397124302        0.4348994098
 C          4.2432728087       -0.2242935592        1.5357397201
 C          4.8014749586       -1.4848558092        1.6709068308
 C          5.6801426886       -1.9575930598        0.7079426611
 C          6.0105957888       -1.1757460703       -0.3877267293
 C          5.4532193089        0.0850447597       -0.5292268799
 H          5.6791777590        0.7243527492       -1.3670210502
 H          6.6959913088       -1.5447824107       -1.1334642790
 H          6.1095573585       -2.9411958597        0.8145427416
 H          4.5455981684       -2.0937146088        2.5232606510
 H          3.5604931187        0.1727015212        2.2700987198
 H          1.7300766589        2.0164687908        1.0942840088
 H          3.0328131891        0.9438336491       -2.1032168606
 H          2.3257088790       -1.1674941014       -3.1946990896
 H          0.6202571188       -2.5910355407       -2.1509322191
 H         -0.3553030215       -2.2922644089        1.2964664407
 C         -0.8942289214       -3.5212905497       -0.3387629588
 C         -2.1876518015       -4.2570422895       -0.1580270685
 C         -1.7841061513       -3.7735430102       -1.5169885887
 H         -1.4702506913       -4.5060468206       -2.2464060483
 H         -2.3048063412       -2.9305534703       -1.9418240692
 H         -2.1515744116       -5.3166403494        0.0460049120
 H         -2.9889026215       -3.7420381892        0.3525238612
 H          0.0092747685       -4.1197811097       -0.2748597084
