  62
        -98.94455877
 C         -1.2144976399       -1.1791662836        0.1636085319
 C         -2.0169272883       -0.6227344770        1.1916319070
 C         -2.6616879527        0.6626456475        0.8913575788
 C         -2.4219644958        1.2560923887       -0.2915301550
 C         -3.0523223507        2.5379423127       -0.7517661675
 C         -4.3518247078        2.2711466788       -1.5244551971
 C         -5.3119968750        1.3209799189       -0.8089025220
 H         -6.2053649019        1.2318597298       -1.4306151440
 H         -4.8584902556        0.3285862752       -0.7546082957
 C         -5.7150525609        1.7696555687        0.6027668171
 H         -5.5022967659        2.8317766305        0.7296503915
 H         -6.7930888809        1.6390099435        0.7179496965
 C         -5.0489813019        0.9827392445        1.7332990704
 H         -5.1820068261       -0.0888342179        1.5627581729
 H         -5.5600215164        1.2298202259        2.6676818653
 C         -3.5540515556        1.2547333554        1.9451002064
 H         -3.2585243567        0.7832109437        2.8873890362
 H         -3.3835444923        2.3299187501        2.0351015889
 H         -4.0964724790        1.8338177881       -2.4923020319
 H         -4.8489458890        3.2262289980       -1.7030217630
 H         -3.2533710210        3.1672944257        0.1131378080
 H         -2.3494523464        3.0554678131       -1.4067843708
 O         -1.5997714802        0.7239366234       -1.2289720535
 C         -0.9672798972       -0.5004010029       -1.0302572139
 O         -0.2335865388       -0.8432301965       -1.9733465071
 O         -2.1860324229       -1.1769293979        2.3115016928
 C         -0.5370884507       -2.5088721400        0.4399302877
 C          0.9287761942       -2.4251652581        0.0959087387
 C          1.5428981413       -3.2197963134       -0.8626738370
 C          2.8957524150       -3.0837988752       -1.1198462243
 C          3.6583958815       -2.1571713320       -0.4340014532
 C          3.0538777552       -1.3570150390        0.5296325163
 C          1.7007497410       -1.4999825734        0.7894626860
 H          1.2390598533       -0.8756465766        1.5414198201
 N          3.8129990817       -0.4268410880        1.2630785378
 S          3.2649845333        1.1346031198        1.4864625987
 O          4.4159447160        1.8435193536        2.0028945446
 O          2.0889001629        1.1393506383        2.3188710836
 C          2.8793180345        1.7318246519       -0.1465828213
 C          3.9200240557        2.1225495837       -0.9670688501
 C          3.6353948035        2.5377754809       -2.2571200986
 C          2.3226159889        2.5473600122       -2.7046146919
 C          1.2895871426        2.1565199870       -1.8676944456
 C          1.5690211822        1.7433177675       -0.5750964566
 H          0.7916178475        1.4293103256        0.1047349120
 H          0.2690455710        2.1470887190       -2.2156285724
 H          2.0996747104        2.8624640214       -3.7117701972
 H          4.4346497184        2.8480775767       -2.9107503152
 H          4.9245185132        2.1108926591       -0.5759156945
 H          4.7945438442       -0.4201093219        1.0243634479
 H          4.7132042663       -2.0516783158       -0.6373391834
 H          3.3611079150       -3.7034858920       -1.8711210136
 H          0.9586587012       -3.9310500984       -1.4225831971
 H         -0.6146329547       -2.6291933726        1.5341962798
 C         -1.2385644933       -3.7103729553       -0.1757019658
 C         -2.7197498870       -3.7001115364       -0.4052146429
 C         -1.7810028031       -3.7014745287       -1.5722998425
 H         -1.6979273221       -4.6053174516       -2.1580748670
 H         -1.6687924332       -2.7962601072       -2.1474456756
 H         -3.2797897822       -4.5976719919       -0.1895361245
 H         -3.2534873328       -2.7885503183       -0.1776002185
 H         -0.8160700289       -4.6466443107        0.1764226276
