  62
        -98.94625506
 C         -2.3945723185       -0.4950802333       -0.0125078379
 C         -1.4038840019       -0.7092963530        0.9732032876
 C         -0.7378285593       -2.0171670531        0.9508402377
 C         -1.0933934530       -2.9164742650        0.0157417262
 C         -0.4121475255       -4.2333455578       -0.2237650456
 C          0.8982717985       -3.9964399369       -1.0035188627
 C          2.1679704030       -4.3527850409       -0.2294909521
 H          2.2751095229       -5.4397344377       -0.2016529692
 H          3.0115391257       -3.9496688775       -0.7945317695
 C          2.2389189775       -3.8341012242        1.2101583773
 H          1.6620287913       -4.4903630063        1.8639987667
 H          3.2810337053       -3.9143432075        1.5265038120
 C          1.7690255290       -2.3889933368        1.4219290121
 H          1.8445283909       -1.8211700661        0.4934466910
 H          2.4378963044       -1.9122415662        2.1420385186
 C          0.3359400618       -2.2611080155        1.9741701545
 H          0.0873634710       -3.1476559775        2.5640398751
 H          0.2934962700       -1.3955778492        2.6414412751
 H          0.8843259954       -4.5809451297       -1.9253936262
 H          0.9383366931       -2.9454576133       -1.3014070792
 H         -0.2112512938       -4.7261463189        0.7249877766
 H         -1.0933137180       -4.8550933439       -0.8054915046
 O         -2.0762878937       -2.6890647491       -0.8942830781
 C         -2.7273203385       -1.4675244341       -0.9522300829
 O         -3.5719724737       -1.3731345833       -1.8678518819
 H         -0.8532520451        0.6688314714       -1.6330395051
 C         -0.8848313914        1.6165908614       -1.1153133066
 C         -1.9623114558        1.9159115833       -0.2909285895
 C         -1.9844945745        3.1510298909        0.3445266200
 C         -0.9368111009        4.0417524302        0.1822808477
 C          0.1618577202        3.7127444942       -0.5907031704
 C          0.1869795656        2.4843788796       -1.2411505454
 N          1.2876305072        2.0874408097       -2.0286884207
 S          2.1239991402        0.7094553841       -1.5676445848
 O          3.2030049397        0.5929046834       -2.5255896974
 O          1.2259288750       -0.4131578839       -1.4854380490
 C          2.8063771271        1.1099002174        0.0317355193
 C          4.1445958669        1.4464191558        0.1087182000
 C          4.6770745590        1.8121839115        1.3339630088
 C          3.8629631818        1.8446733995        2.4563707384
 C          2.5215558264        1.5096834117        2.3602353249
 C          1.9813678383        1.1385575996        1.1380389428
 H          0.9409021830        0.8677890850        1.0510304611
 H          1.8798263580        1.5318273945        3.2265347499
 H          4.2749471969        2.1314471683        3.4110974186
 H          5.7208183747        2.0716081318        1.4091479022
 H          4.7376276736        1.4043112224       -0.7906181433
 H          1.9521082720        2.8295193170       -2.2017506203
 H          0.9926213389        4.3949274202       -0.6911380670
 H         -0.9668325425        4.9971005979        0.6835114143
 H         -2.8188181904        3.4128566782        0.9745698395
 C         -3.0434771264        0.8725946608       -0.1302641538
 H         -3.6459206979        0.8492224709       -1.0504882478
 C         -3.9579056579        1.1329624309        1.0490310592
 C         -5.1769232599        1.9897553578        0.8889598815
 C         -5.3192455402        0.5077059804        1.0574880916
 H         -5.7064807895        0.1266345767        1.9904137904
 H         -5.5954204169       -0.0841354266        0.1965944339
 H         -5.3712190210        2.4073233176       -0.0874729485
 H         -5.4716575962        2.6262815340        1.7096269174
 H         -3.4199553117        1.1737016810        1.9890637887
 O         -1.0791004422        0.1627333342        1.8232670260
