  62
        -98.93960206
 C          1.6334277296        1.3981823927       -0.3343299070
 C          1.4094496098        0.0304318877       -0.6102741275
 C          2.2692588563       -0.9449142531        0.0910109495
 C          3.2339642638       -0.4946704708        0.9123998637
 C          4.2483145271       -1.2992322529        1.6794289666
 C          5.3737565094       -1.8462385814        0.7829233547
 C          4.9212289614       -2.3823910527       -0.5734151522
 H          4.3692673473       -1.6019888859       -1.1003448095
 H          5.8176560858       -2.5989531261       -1.1603930308
 C          4.0782896477       -3.6543040244       -0.5237574543
 H          4.6670540178       -4.4557572165       -0.0714888384
 H          3.8605756313       -3.9425727550       -1.5551949517
 C          2.7536099763       -3.5468932258        0.2327857546
 H          2.1810137483       -4.4551106072        0.0213856938
 H          2.9200605530       -3.5326599581        1.3066379384
 C          1.8688323550       -2.3747577625       -0.1810435000
 H          1.6802681999       -2.4346686419       -1.2588830876
 H          0.8888256879       -2.4929259979        0.3014272065
 H          5.9008761050       -2.6297384476        1.3296449259
 H          6.0780747381       -1.0318611535        0.5970841224
 H          4.6883389667       -0.6275094594        2.4199676749
 H          3.7500318248       -2.1006270121        2.2177987238
 O          3.4494642966        0.8366948626        1.1149628689
 C          2.6462584609        1.7994612893        0.5407394348
 O          2.9375518128        2.9695596464        0.8658100148
 H         -1.1427086207        0.6929023484       -0.3022921833
 C         -1.3198866587        1.6301639127        0.1960539847
 C         -0.4479971505        2.6919685877       -0.0050399573
 C         -0.6959254594        3.8950675713        0.6443059138
 C         -1.7831297992        4.0249934239        1.4902705254
 C         -2.6216770373        2.9512231902        1.7242844809
 C         -2.3819062604        1.7409882287        1.0800718065
 N         -3.2157995785        0.6391863683        1.3112833907
 S         -2.6372631777       -0.9353115454        1.4228388542
 O         -3.4123501081       -1.5235303782        2.4987452152
 O         -1.2043098895       -0.9737045816        1.5811543965
 C         -3.1676608794       -1.6798779464       -0.1059352152
 C         -2.2935075932       -1.8474782611       -1.1596217221
 C         -2.7642698722       -2.4240296409       -2.3306035165
 C         -4.0887194938       -2.8187255678       -2.4291014471
 C         -4.9548050829       -2.6427212615       -1.3599241353
 C         -4.4920807535       -2.0688849123       -0.1880696359
 H         -5.1252841028       -1.9287193262        0.6722762312
 H         -5.9850060809       -2.9512074599       -1.4366388295
 H         -4.4466604040       -3.2668386302       -3.3427217030
 H         -2.0863259398       -2.5569483644       -3.1586968036
 H         -1.2665661695       -1.5274119933       -1.0686554351
 H         -3.9337681973        0.8008883894        2.0023690770
 H         -3.4536273309        3.0425753314        2.4064353403
 H         -1.9672362443        4.9647977976        1.9886852822
 H         -0.0179773106        4.7235836078        0.4999204415
 C          0.7708716140        2.5254926632       -0.8830848900
 H          1.3775158467        3.4365027496       -0.7855947981
 C          0.3824390214        2.3656104695       -2.3390535233
 C          0.0213779827        3.5867128826       -3.1284228169
 C          1.3084500231        2.8695175096       -3.4030051238
 H          1.4015186388        2.3007019966       -4.3157461644
 H          2.2301933134        3.3344354072       -3.0835029213
 H         -0.7733237879        3.5127625225       -3.8545348042
 H          0.0714946091        4.5411499290       -2.6263991445
 H         -0.1602065514        1.4529280180       -2.5434299273
 O          0.5384012851       -0.3950900808       -1.4154730140
