  62
        -98.94671266
 C          2.2078857996        0.3876375643       -0.0549064587
 C          1.9880375080        1.4810156611       -0.9326767394
 C          1.2030151286        2.6016486018       -0.3991251686
 C          0.7712602193        2.5547832648        0.8733866642
 C         -0.0744542316        3.6014151196        1.5373187519
 C         -1.5700225070        3.2822514952        1.4054889644
 C         -2.0115945741        2.9388949915       -0.0173052092
 H         -1.5681623751        1.9877643977       -0.3229531617
 H         -3.0930731961        2.7831955437        0.0065619371
 C         -1.6738449049        4.0071102707       -1.0669178803
 H         -2.5419841831        4.1423937106       -1.7154225525
 H         -1.4791079846        4.9631443053       -0.5784881505
 C         -0.4958778585        3.6484709952       -1.9756154205
 H         -0.6362124704        2.6347705834       -2.3628517632
 H         -0.5045895286        4.3299530642       -2.8309623957
 C          0.8947684390        3.7372503355       -1.3320970738
 H          1.6376907908        3.6805822278       -2.1332376811
 H          1.0068784673        4.6989987077       -0.8266620129
 H         -1.8045299498        2.4294113661        2.0463668697
 H         -2.1370092222        4.1441626406        1.7620615458
 H          0.1875492588        3.6326233231        2.5963408548
 H          0.1420576899        4.5701216279        1.0912154635
 O          1.0314832158        1.5112959977        1.6980333163
 C          1.6934809728        0.3753397645        1.2426122117
 O          1.7486649376       -0.5370301307        2.0868963656
 O          2.4227374318        1.5113179898       -2.1156896009
 C          2.8580150811       -0.8571820596       -0.6386858079
 C          1.8947336659       -2.0047675440       -0.4620073510
 C          2.1527902756       -3.1374043504        0.2969832507
 C          1.1757109288       -4.1063452546        0.4513833382
 C         -0.0725752996       -3.9584753577       -0.1255104019
 C         -0.3405058727       -2.8281446295       -0.8912522216
 C          0.6514340080       -1.8781077977       -1.0712809207
 H          0.4424342753       -1.0036044304       -1.6710596551
 N         -1.5962276543       -2.6473844661       -1.4995118212
 S         -2.4176258915       -1.1943736017       -1.4139265725
 O         -3.6822384954       -1.4576310566       -2.0643529835
 O         -1.6176879942       -0.1362607804       -1.9743992097
 C         -2.7006572404       -0.8967713498        0.3206434030
 C         -1.6271624544       -0.5425893075        1.1115794478
 C         -1.8262439307       -0.3366805817        2.4669360329
 C         -3.0956841276       -0.4809064453        3.0056902541
 C         -4.1664018522       -0.8346827212        2.1979870434
 C         -3.9695828196       -1.0511833667        0.8434561215
 H         -4.7714389468       -1.3276931119        0.1781979578
 H         -5.1521389948       -0.9444482417        2.6205756564
 H         -3.2483613626       -0.3154632634        4.0605839297
 H         -0.9787432231       -0.0719666353        3.0805819741
 H         -0.6500292572       -0.4340104835        0.6684071423
 H         -2.2392943391       -3.4127096127       -1.3549534908
 H         -0.8365534360       -4.7081013756        0.0147063978
 H          1.3838332360       -4.9824190349        1.0465662117
 H          3.1071114679       -3.2482297062        0.7848895056
 H          2.9211718863       -0.6390472976       -1.7185220526
 C          4.2763256705       -1.1544732019       -0.1841041161
 C          5.1980947196       -0.0431773140        0.2195015292
 C          4.7353205497       -1.0398908847        1.2373249226
 H          5.4495399031       -1.7663154717        1.5974386407
 H          4.0151848206       -0.7302427830        1.9765425815
 H          6.2251466519       -0.0777698865       -0.1118205736
 H          4.7839651574        0.9543468929        0.2578197884
 H          4.7195972784       -1.9545386309       -0.7701803724
