  62
        -98.93083799
 C          1.5308331687        0.5415452193       -0.8226651528
 C          2.8749664706        0.9195711230       -1.0680954097
 C          3.9304890757        0.0055401905       -0.6007028475
 C          3.5818656937       -1.1206335050        0.0484084576
 C          4.4188208722       -2.2515615357        0.6092299583
 C          5.9313010654       -2.1065675695        0.7533133360
 C          6.3777890577       -1.0970836464        1.8107075699
 H          6.1352559038       -1.4988468664        2.7978043426
 H          7.4636441729       -0.9959591213        1.7511080037
 C          5.7436122817        0.2879925036        1.7103181884
 H          6.1361678925        0.8956761466        2.5302641541
 H          4.6644013055        0.2097145779        1.8569156031
 C          6.0135370193        1.0377941705        0.4074392779
 H          7.0896788845        1.0964826761        0.2325379900
 H          5.6390531152        2.0577062824        0.5307141107
 C          5.3444751075        0.4483273191       -0.8458636249
 H          5.2920235061        1.2371043802       -1.6019918703
 H          5.9345148049       -0.3641093074       -1.2633326309
 H          6.3112603059       -3.0869360342        1.0535688249
 H          6.3809545232       -1.8770376421       -0.2082416671
 H          3.9869145027       -2.4848088802        1.5876004044
 H          4.2134719452       -3.1162349745       -0.0312920627
 O          2.2756977825       -1.4410983240        0.2688018871
 C          1.2204569648       -0.6417005312       -0.1522673592
 O          0.1058676614       -1.1070548368        0.1394815350
 H         -1.8529910579        0.3100855642       -0.2310973025
 C         -1.5606284788        1.2262631220        0.2469502489
 C         -0.4399414813        1.9234327676       -0.1775452849
 C         -0.0749845946        3.0702313788        0.5280398987
 C         -0.8070707272        3.5059554159        1.6151984984
 C         -1.9385993735        2.8183273826        2.0167600606
 C         -2.3111886677        1.6723044301        1.3270392273
 N         -3.4387668948        0.9353583631        1.7149922858
 S         -4.4150859107        0.2418570602        0.5493738058
 O         -4.4612315151        1.0528720004       -0.6457963180
 O         -5.6840423906        0.0384490020        1.2187519793
 C         -3.6922987795       -1.3455931654        0.2039973166
 C         -3.2108615153       -2.0997941367        1.2545076083
 C         -2.6810380020       -3.3513026553        0.9898564610
 C         -2.6484685541       -3.8277844986       -0.3113931514
 C         -3.1414344695       -3.0602387612       -1.3541710578
 C         -3.6697028509       -1.8052249491       -1.0970575969
 H         -4.0459234452       -1.1683304356       -1.8820725058
 H         -3.1082807296       -3.4284867268       -2.3672347748
 H         -2.2298623184       -4.8010069678       -0.5148763750
 H         -2.2881578373       -3.9484652541        1.7970074849
 H         -3.2449171123       -1.6957480085        2.2526182123
 H         -3.9736967986        1.3300790385        2.4743083049
 H         -2.5224983332        3.1591946368        2.8584067184
 H         -0.5025003098        4.3941311997        2.1480253255
 H          0.8049763277        3.6164682346        0.2174469026
 C          0.4491428477        1.4961324619       -1.3163005070
 H          1.0164061170        2.3921059590       -1.6130877728
 C         -0.1912311723        0.9921819305       -2.6059025401
 C         -0.9869762395       -0.2706088264       -2.7392370371
 C         -1.6535714202        1.0586914900       -2.9300487376
 H         -1.9301391342        1.3453827773       -3.9345769070
 H         -2.3467857694        1.4026607169       -2.1776162072
 H         -1.1879213375       -0.8434815606       -1.8487327873
 H         -0.8089165055       -0.8844318915       -3.6112332282
 H          0.4770710384        1.1908256219       -3.4407120584
 O          3.1865574305        1.9851198039       -1.6669017822
