  62
        -98.94087107
 C         -2.3076367152       -0.4215731242        0.2414305365
 C         -3.5563356304       -0.9631657978        0.6296565297
 C         -4.6899987539       -0.0296289421        0.6279222926
 C         -4.4818356669        1.2555738001        0.2873934180
 C         -5.5553184175        2.3000926377        0.1910660673
 C         -6.1391252903        2.3671279996       -1.2271683128
 C         -6.5335225253        1.0049020860       -1.7979636552
 H         -6.9589826434        1.1786288643       -2.7887472881
 H         -5.6325895051        0.4026809675       -1.9368348178
 C         -7.5381568494        0.2234894513       -0.9397188108
 H         -8.3085444578       -0.1909700912       -1.5933079488
 H         -8.0341392713        0.8995418292       -0.2424231713
 C         -6.9334961915       -0.9489710237       -0.1651892357
 H         -7.7533605255       -1.5564534172        0.2271006988
 H         -6.3561951821       -1.5791464624       -0.8464560092
 C         -6.0354357959       -0.5728287684        1.0200726767
 H         -6.5599940185        0.1290191803        1.6713963397
 H         -5.8349841426       -1.4860525342        1.5879697087
 H         -5.3911936953        2.8113358684       -1.8880996076
 H         -7.0111286678        3.0234527570       -1.2107714650
 H         -6.3414640334        2.0729507556        0.9084420716
 H         -5.1161408303        3.2676167721        0.4397124781
 O         -3.2625365128        1.7447710290       -0.0574996061
 C         -2.1468787996        0.9210446671       -0.0993938541
 O         -1.0962613366        1.4964507622       -0.4431821777
 H          1.5937939999       -1.0051640093       -0.3540085688
 C          1.3198757309       -0.7018168654        0.6418473296
 C          0.0064155306       -0.7986943124        1.0735336252
 C         -0.2993990001       -0.4043937177        2.3738661779
 C          0.6795009440        0.1004284929        3.2066161672
 C          1.9846016939        0.2205810956        2.7626660589
 C          2.3060670117       -0.1902304656        1.4745949924
 N          3.6385039191       -0.1319494148        1.0293770729
 S          3.9950251853        0.1537464329       -0.5943370428
 O          3.3788226417        1.3806871008       -1.0474051240
 O          3.6990343841       -1.0336412978       -1.3554772511
 C          5.7633080209        0.3596449307       -0.4773228926
 C          6.5512417981       -0.7680004360       -0.3419008594
 C          7.9236365011       -0.6161135077       -0.2252275406
 C          8.4828033456        0.6531515611       -0.2464107400
 C          7.6798555536        1.7751102157       -0.3852793789
 C          6.3060135837        1.6301848013       -0.5004523382
 H          5.6425742479        2.4721404158       -0.6181111724
 H          8.1173166094        2.7603123223       -0.4048579231
 H          9.5514501321        0.7687230566       -0.1572161585
 H          8.5517778088       -1.4858859441       -0.1195237606
 H          6.0732888297       -1.7335582697       -0.3404286576
 H          4.2174483884        0.4449901545        1.6250318035
 H          2.7477964379        0.6255511015        3.4097485392
 H          0.4243603407        0.4114096755        4.2087002861
 H         -1.3214920371       -0.4893150407        2.7179529601
 C         -1.0962325705       -1.3337586582        0.1939989702
 H         -1.4354658597       -2.2932327395        0.6138145197
 C         -0.6663176975       -1.5581489805       -1.2406011344
 C          0.0073791722       -2.8364493603       -1.6375239752
 C         -1.3996375332       -2.5638285143       -2.0747187122
 H         -1.5846826363       -2.3353912985       -3.1136777166
 H         -2.1984182460       -3.1128212749       -1.5975435105
 H          0.1640075248       -3.5763191272       -0.8671193471
 H          0.7985207532       -2.7926140442       -2.3712759977
 H         -0.3468840107       -0.6418092852       -1.7273260848
 O         -3.7128728074       -2.1676308921        0.9669447284
