  62
        -98.93853517
 C          1.2387857189        0.9496764403        0.2341185004
 C          1.8282851993       -0.1634955595        0.8867005003
 C          2.7589920899       -0.9699142888        0.0869508303
 C          2.9700234900       -0.6431596485       -1.2006644196
 C          3.9292085205       -1.3452503478       -2.1166271495
 C          5.3203688502       -0.6981014070       -2.0673819192
 C          5.8506765598       -0.4786493670       -0.6503937890
 H          5.2246199993        0.2609052426       -0.1457901790
 H          6.8488184696       -0.0447406864       -0.7410818788
 C          5.9215332003       -1.7506698671        0.2061646308
 H          6.8823885702       -1.7698639367        0.7247555609
 H          5.8831060509       -2.6317554770       -0.4355623994
 C          4.8343195002       -1.8551283579        1.2773023505
 H          4.8092598496       -0.9333801080        1.8639584407
 H          5.1042673405       -2.6679641479        1.9565898604
 C          3.4174221204       -2.1390219886        0.7632577002
 H          2.7913348104       -2.3734610091        1.6289256801
 H          3.4335223910       -3.0085288884        0.1029207001
 H          5.2691737197        0.2716335330       -2.5682013190
 H          6.0147570206       -1.3303831065       -2.6237980991
 H          3.9951149910       -2.3933421178       -1.8304199497
 H          3.5437645907       -1.2799762878       -3.1356930696
 O          2.3520121095        0.4015727813       -1.8078673095
 C          1.4694050289        1.2241112907       -1.1149673595
 O          0.9673626786        2.1226786606       -1.8147558794
 H         -0.9179820205       -0.0154871207       -0.5557857301
 C         -1.5435705410        0.8583882890       -0.4184945501
 C         -1.0709790017        1.9174576191        0.3458870602
 C         -1.8972277723        3.0243003986        0.5043051802
 C         -3.1539203522        3.0607604780       -0.0760560500
 C         -3.6182540815        1.9992648579       -0.8319436203
 C         -2.7937895009        0.8997421784       -1.0138225103
 N         -3.2724487602       -0.2095114917       -1.7634480206
 S         -4.1509942498       -1.2845583024       -0.8218547610
 O         -4.3968702290       -2.4418474623       -1.6522230112
 O         -5.3102776402       -0.5964479131       -0.3158518910
 C         -3.0447245298       -1.7020162020        0.5129476492
 C         -3.0282285104       -0.9081228822        1.6422731493
 C         -2.0696568104       -1.1475973919        2.6137206794
 C         -1.1430678899       -2.1634442314        2.4376900694
 C         -1.1760437092       -2.9543476712        1.2994252193
 C         -2.1303208992       -2.7189884515        0.3228814491
 H         -2.1853140387       -3.3078124114       -0.5795231110
 H         -0.4512618388       -3.7415756807        1.1648571792
 H         -0.3799085999       -2.3256929111        3.1818234495
 H         -2.0354019309       -0.5315964220        3.4978756996
 H         -3.7600073608       -0.1221465626        1.7380711493
 H         -2.5275487498       -0.7207506312       -2.2172669506
 H         -4.6000614914        2.0009438075       -1.2759185704
 H         -3.7809121227        3.9279201177        0.0643024401
 H         -1.5583751329        3.8664704387        1.0849324305
 C          0.2620735183        1.7804764697        1.0415292204
 H          0.0837092384        1.1659045094        1.9416963003
 C          0.8194078475        3.1115593499        1.5347683607
 C          2.2684064673        3.4661281907        1.3888155911
 C          1.2356643770        4.1931750503        0.5842670210
 H          1.0133341964        5.2190333401        0.8391313612
 H          1.1688773773        3.9737998704       -0.4698332590
 H          2.9105180078        2.7669213711        0.8725099311
 H          2.7532768069        3.9840890508        2.2030405713
 H          0.3520033671        3.4373282794        2.4584754107
 O          1.5763456993       -0.4729397298        2.0801107702
