  62
        -98.94139845
 C         -1.2457639864       -1.1092021510       -0.0765620794
 C         -1.6639905469       -0.0452939494        0.7554265394
 C         -2.7299212401        0.8204642515        0.2274993288
 C         -3.2010531234        0.6018255468       -1.0119137793
 C         -4.2420244064        1.3875514375       -1.7697365752
 C         -5.5005519315        1.8205706705       -1.0042852013
 C         -5.9557394837        0.8548340765        0.0996859293
 H         -7.0171723832        0.6386959147       -0.0348146368
 H         -5.4169151181       -0.0903383568        0.0147665801
 C         -5.7677690415        1.4260326555        1.5072751646
 H         -6.4237853399        0.8873098627        2.1951561931
 H         -6.0838098109        2.4714703886        1.5053364532
 C         -4.3496675408        1.3338980267        2.0694297074
 H         -4.1076734124        0.2914424695        2.2931270687
 H         -4.3267421348        1.8793764312        3.0158511499
 C         -3.2395629122        1.8829032408        1.1580961568
 H         -3.5711017486        2.7659420863        0.6167272034
 H         -2.3912415185        2.1644722378        1.7883952792
 H         -6.2960714440        1.9299825843       -1.7433187168
 H         -5.3399156386        2.8062432406       -0.5694434712
 H         -4.5254717380        0.7468682882       -2.6083828980
 H         -3.7553461908        2.2723042624       -2.1914832597
 O         -2.7337077454       -0.4063607513       -1.8016825801
 C         -1.7504995646       -1.2803055283       -1.3639724427
 O         -1.4235105394       -2.1449695254       -2.1992534774
 O         -1.1592581068        0.1791130330        1.8890977978
 C         -0.1527661980       -2.0405286806        0.4109344341
 C          1.0835191275       -1.8996058021       -0.4436015807
 C          1.8943443988       -2.9690847062       -0.8028560037
 C          3.0323630723       -2.7585225808       -1.5625374636
 C          3.4037029221       -1.4846267209       -1.9531800525
 C          2.6022573420       -0.4075143983       -1.5928363830
 C          1.4514267703       -0.6258617248       -0.8539030234
 H          0.8214651720        0.2155232393       -0.6103242642
 N          2.9369669132        0.9073788067       -1.9510768981
 S          2.6294797337        2.1431375039       -0.8651027995
 O          1.2274195601        2.4791580093       -0.8660541025
 O          3.5287477322        3.2031197227       -1.2708549342
 C          3.1414179094        1.4916314567        0.7153994061
 C          4.4969844362        1.2957734660        0.9022795350
 C          4.9402557084        0.7394637231        2.0900900101
 C          4.0232544293        0.3832858922        3.0678500216
 C          2.6682164121        0.5925177471        2.8684158467
 C          2.2179219006        1.1522869093        1.6823222798
 H          1.1654895765        1.3147913525        1.5082904862
 H          1.9469235921        0.3190487755        3.6221831978
 H          4.3653954001       -0.0571885409        3.9910371358
 H          5.9947715017        0.5817427592        2.2488739176
 H          5.1784338053        1.5955157685        0.1227217941
 H          3.8344931870        1.0131797346       -2.4004262203
 H          4.2960418419       -1.3230694665       -2.5380021827
 H          3.6465600397       -3.5995097515       -1.8461056152
 H          1.6307569213       -3.9679000563       -0.4961729786
 H          0.1024681512       -1.6844683165        1.4213200410
 C         -0.6612236907       -3.4635153468        0.5108474316
 C         -0.1175736903       -4.3905980383        1.5556593448
 C         -1.5072337458       -3.8465018410        1.6871582128
 H         -2.3428641148       -4.5111725890        1.5271973742
 H         -1.6918199648       -3.0864592115        2.4325027355
 H         -0.0003346900       -5.4346143053        1.3071583155
 H          0.6403328460       -4.0055130343        2.2208082885
 H         -0.9303256608       -3.8764727877       -0.4547191904
