  62
        -98.93965161
 C          2.1464431628        0.7880734743        0.7967195032
 C          2.8738306263       -0.3737346167        1.1637972968
 C          4.2887273723       -0.4058373777        0.7807497334
 C          4.8277640537        0.6479603121        0.1417563774
 C          6.2613006966        0.7821227027       -0.2949604988
 C          6.5652629985        0.1209001840       -1.6462505361
 C          6.5940301634       -1.4079482462       -1.6301639588
 H          7.0296555481       -1.7300890786       -2.5780716211
 H          7.2570880871       -1.7495830136       -0.8347213483
 C          5.2161259150       -2.0662654736       -1.4722486377
 H          4.4344336602       -1.3373953648       -1.6987130189
 H          5.1149751231       -2.8780359183       -2.1961362437
 C          4.9508924479       -2.6594923732       -0.0883542270
 H          5.6439916588       -3.4832274862        0.0968182600
 H          3.9355554151       -3.0646178585       -0.0781500245
 C          5.0697538664       -1.6531801374        1.0638200641
 H          6.1169156464       -1.4135808591        1.2481022795
 H          4.6508039851       -2.1105807278        1.9635958660
 H          7.5455694201        0.4778241067       -1.9702826202
 H          5.8285302510        0.4636311944       -2.3763530495
 H          6.4608197545        1.8522704068       -0.3824489126
 H          6.9176972203        0.3674158527        0.4705545119
 O          4.1061785067        1.7537470723       -0.1730168210
 C          2.7475726481        1.8464522250        0.1134483119
 O          2.2283196280        2.9040639673       -0.2858189634
 O          2.3609182420       -1.3380151725        1.7936194379
 C          0.6782431594        0.8140822434        1.1784498871
 C         -0.1812878456        0.2341741234        0.0830296225
 C         -0.0164884472        0.6169893490       -1.2452111020
 C         -0.8113612183        0.0728066107       -2.2369594877
 C         -1.7995717977       -0.8444301886       -1.9223883395
 C         -1.9782174339       -1.2264076935       -0.5990144462
 C         -1.1631120760       -0.6956547276        0.3921237118
 H         -1.3088835931       -1.0154933560        1.4125885761
 N         -2.9881157376       -2.1408293482       -0.2339182686
 S         -4.2127851449       -1.5595949517        0.7514915554
 O         -3.6537916446       -1.0891786868        1.9913227057
 O         -5.1780754048       -2.6313053464        0.8366335871
 C         -4.8991973684       -0.1974874100       -0.1744820651
 C         -4.2783827435        1.0339276018       -0.1086965902
 C         -4.7637223351        2.0711086665       -0.8893232504
 C         -5.8544350608        1.8595716048       -1.7188114706
 C         -6.4679765722        0.6169727975       -1.7728061042
 C         -5.9841818867       -0.4252357694       -0.9984533467
 H         -6.4323354151       -1.4057771459       -1.0055130247
 H         -7.3179100943        0.4569984515       -2.4165084585
 H         -6.2285025532        2.6693081826       -2.3251977319
 H         -4.2850193834        3.0363693350       -0.8456162788
 H         -3.4363400481        1.1650930908        0.5505667183
 H         -3.3967985015       -2.6273709423       -1.0201725739
 H         -2.4244107771       -1.2647548971       -2.6960378859
 H         -0.6676725833        0.3739738064       -3.2634442078
 H          0.7368279836        1.3513117549       -1.4875646801
 H          0.6016748769        0.1348533922        2.0428886095
 C          0.1915477296        2.1846320303        1.6321134092
 C         -0.8540807962        2.9639547587        0.8972644418
 C         -1.1850527708        2.3263305351        2.2116287584
 H         -1.3185795348        2.9596821843        3.0757493601
 H         -1.8161484909        1.4484149002        2.2156693640
 H         -0.7393891808        4.0362090184        0.8563899523
 H         -1.2680235167        2.5366366227       -0.0028395419
 H          0.9794494410        2.7620711788        2.1035767882
