  62
        -98.94429027
 C         -2.2190966987       -1.1010226073        0.2885547740
 C         -2.3602023726       -0.0052683785       -0.5971082704
 C         -3.2072393151        1.0971062512       -0.1217908376
 C         -3.7562904875        1.0484717934        1.1046196269
 C         -4.6098872553        2.1117581320        1.7404396647
 C         -6.0907040407        2.0483216600        1.3415029142
 C         -6.4001382664        2.4960527625       -0.0875448484
 H         -7.4834932611        2.6104040637       -0.1596636058
 H         -5.9568742935        3.4766843731       -0.2636349878
 C         -5.9341564596        1.5156598176       -1.1728879787
 H         -5.7344594238        0.5409993123       -0.7219186439
 H         -6.7340013609        1.3732274101       -1.9029139776
 C         -4.6932815081        1.9664647507       -1.9434823366
 H         -4.9207890563        2.8736040920       -2.5077702177
 H         -4.4291380326        1.1826116538       -2.6578403103
 C         -3.4670488875        2.2360169093       -1.0616330512
 H         -2.5923117939        2.3401965679       -1.7087799863
 H         -3.5989558366        3.1642763452       -0.5058629431
 H         -6.6399602206        2.6954167600        2.0291541620
 H         -6.4481517951        1.0267126724        1.4889223895
 H         -4.2076083304        3.0963419845        1.4994171542
 H         -4.5370443102        1.9621381131        2.8198760926
 O         -3.5706177308       -0.0058235018        1.9415782031
 C         -2.8189701902       -1.1001995034        1.5529016407
 O         -2.7583736938       -2.0042880410        2.4097926898
 O         -1.8184633955        0.0776282944       -1.7328447594
 C         -1.3859328102       -2.3348176542       -0.0318613963
 C          0.0754152159       -2.0299438072        0.1960797765
 C          0.7565495533       -2.5785540461        1.2765161447
 C          2.0806404738       -2.2532312128        1.5133877062
 C          2.7491932898       -1.3704161610        0.6838838776
 C          2.0734786186       -0.8094562173       -0.3914728970
 C          0.7525241505       -1.1510129321       -0.6374280811
 H          0.2275755018       -0.6940289814       -1.4631112611
 N          2.7381884617        0.1129028058       -1.2260687431
 S          3.3323182476        1.4909686326       -0.4650548547
 O          2.5645580834        1.8177295862        0.7156667341
 O          3.3937019006        2.5053518764       -1.4950478229
 C          4.9915105599        1.0326685689       -0.0083813945
 C          5.3914498250        1.1141952447        1.3109070408
 C          6.6901273984        0.7578369384        1.6403746226
 C          7.5606312468        0.3293919109        0.6499404139
 C          7.1438007919        0.2554407693       -0.6710226673
 C          5.8474339846        0.6109651837       -1.0072125073
 H          5.4834483604        0.5714029021       -2.0202290632
 H          7.8236986782       -0.0782739214       -1.4382238361
 H          8.5700591423        0.0517454642        0.9093116074
 H          7.0156488467        0.8150696744        2.6666476656
 H          4.6768315854        1.4466765472        2.0469722329
 H          2.1795163782        0.3840059531       -2.0241372511
 H          3.7775900642       -1.1053583085        0.8684989610
 H          2.5962660633       -2.6875110452        2.3563312861
 H          0.2316029917       -3.2464863515        1.9442139254
 H         -1.6877700429       -3.0933888389        0.7023773946
 C         -1.6425057027       -2.8845384100       -1.4208485211
 C         -1.2773391140       -4.3073402409       -1.7147841724
 C         -2.7184314280       -3.9085738012       -1.6140055827
 H         -3.3098824298       -3.8695197505       -2.5164858137
 H         -3.2748266854       -4.2197019071       -0.7415817051
 H         -0.8765580834       -4.5453993689       -2.6879834397
 H         -0.8566250935       -4.8909839417       -0.9100216962
 H         -1.5078139377       -2.1555033425       -2.2085187215
