  62
        -98.93860407
 C          1.9099969069       -0.9263039243        0.0005946878
 C          2.3975111277        0.3992323552       -0.0553800661
 C          3.8259286420        0.5592626539       -0.3886071336
 C          4.5807021065       -0.5320802600       -0.6148911750
 C          6.0377188359       -0.6748621873       -1.0036212584
 C          6.9972831736        0.5066884312       -0.8891995699
 C          7.2877677115        0.9585660866        0.5416158330
 H          7.8984669154        1.8629466104        0.4966668282
 H          7.8773145576        0.1835997568        1.0379895380
 C          6.0617102137        1.2301490925        1.4098349759
 H          6.4135937053        1.5378582479        2.3983577826
 H          5.4948886131        0.3066039148        1.5443469882
 C          5.1216908390        2.3177027643        0.8932625763
 H          5.6829525934        3.2381561510        0.7206419253
 H          4.3862786978        2.5171950671        1.6775855867
 C          4.3455238616        1.9680049570       -0.3883149199
 H          4.9424354933        2.1586783489       -1.2769883840
 H          3.4663315678        2.6173958831       -0.4381906926
 H          6.6417664972        1.3404598892       -1.4873641580
 H          7.9437374282        0.1819319658       -1.3300831300
 H          6.4234905806       -1.5075741161       -0.4069434645
 H          6.0348500127       -1.0178640580       -2.0441525217
 O          4.0573099578       -1.7927266596       -0.5628280827
 C          2.7296582171       -2.0239560296       -0.2536882410
 O          2.4050163866       -3.2285022211       -0.2418995264
 H         -1.5705171130        0.6522705632        0.8154428914
 C         -1.4235059272        0.4182607158       -0.2248878788
 C         -0.4455624403       -0.4795053710       -0.6204923979
 C         -0.2815860717       -0.7318630301       -1.9809950913
 C         -1.0632907390       -0.0873345135       -2.9187440282
 C         -2.0344123598        0.8151199784       -2.5200065094
 C         -2.2107204814        1.0705868722       -1.1660769425
 N         -3.1737804083        1.9985153111       -0.7401076772
 S         -4.1681566707        1.6815621867        0.5634569303
 O         -5.2172055625        2.6720054326        0.4638252078
 O         -3.4116708667        1.6742160872        1.7886372957
 C         -4.8335981306        0.0609615745        0.2304757932
 C         -4.2371683463       -1.0523476039        0.7862647023
 C         -4.7298050519       -2.3066833114        0.4615686489
 C         -5.8026441837       -2.4255008926       -0.4081067729
 C         -6.3935281679       -1.2963888928       -0.9552149144
 C         -5.9033375724       -0.0403778792       -0.6379271345
 H         -6.3405683408        0.8627474644       -1.0318673428
 H         -7.2310128843       -1.3919589169       -1.6273647048
 H         -6.1813618388       -3.4039949051       -0.6582051557
 H         -4.2725925160       -3.1853940873        0.8879998509
 H         -3.4087444437       -0.9214176671        1.4623589077
 H         -3.6923253136        2.4347329809       -1.4881793637
 H         -2.6402598884        1.3279613065       -3.2515198709
 H         -0.9178364694       -0.2877866503       -3.9695611917
 H          0.4809917541       -1.4339500444       -2.2906715934
 C          0.4574797980       -1.1934908903        0.3550253256
 H          0.3118923421       -2.2761896335        0.2280904784
 C          0.2017807155       -0.8359525568        1.8037559973
 C         -0.8504455535       -1.5626643480        2.5840589772
 C          0.5998864199       -1.8078355162        2.8719658099
 H          1.0189498929       -1.4225096333        3.7894120975
 H          1.0340726082       -2.7443725800        2.5526305064
 H         -1.3957470019       -2.3438381888        2.0757826260
 H         -1.4329344976       -1.0077336730        3.3050046832
 H          0.3554678739        0.2171191480        2.0112705362
 O          1.6784479001        1.4106016392        0.1558896924
