  62
        -98.93574715
 C         -2.2308962432       -0.8055888789        0.0574445530
 C         -3.4211501548       -1.0044185292        0.8013680104
 C         -4.3955267634        0.1027972521        0.8376573286
 C         -4.0847452420        1.2539655566        0.2142591177
 C         -4.9174231576        2.5019008324        0.0870310437
 C         -6.0484639984        2.3574498782       -0.9439234358
 C         -6.8208219278        1.0428739781       -0.8704316971
 H         -7.5162744876        1.0194390930       -1.7135868047
 H         -6.1257251598        0.2115933227       -1.0016674429
 C         -7.6289652736        0.8330393211        0.4079034272
 H         -8.1977505857       -0.0919301859        0.2831290060
 H         -8.3451232261        1.6505252129        0.5166817269
 C         -6.8191576569        0.7205456262        1.7014786521
 H         -7.4903106201        0.3298604829        2.4719027218
 H         -6.4906280102        1.6974929078        2.0458770813
 C         -5.6345594509       -0.2378550028        1.6304312755
 H         -5.2843228154       -0.4360107125        2.6506011822
 H         -5.9794752863       -1.2072920241        1.2528592398
 H         -5.6070522680        2.4291715159       -1.9411338427
 H         -6.7370592098        3.1948916390       -0.8195473682
 H         -4.2432080664        3.2949691900       -0.2443459772
 H         -5.3119263640        2.7878586340        1.0575868277
 O         -2.9083907899        1.4189707888       -0.4534799573
 C         -1.9580063898        0.4158934592       -0.5600832519
 O         -0.9542527261        0.7492442889       -1.2185062202
 O         -3.6723001804       -2.0759063129        1.4155382740
 C         -1.2338548132       -1.9516778063        0.0271849382
 C          0.1292115245       -1.4531878538        0.4307524667
 C          0.4136464018       -1.2552200696        1.7785934037
 C          1.6392816352       -0.7536188445        2.1737193304
 C          2.6017395989       -0.4282586286        1.2336260358
 C          2.3183994958       -0.6004416728       -0.1141587922
 C          1.0962784036       -1.1307475849       -0.5071552183
 H          0.8808670859       -1.2500960271       -1.5574908677
 N          3.2807180172       -0.2647264988       -1.0797294293
 S          4.1789139137        1.1390327033       -0.8940620026
 O          3.4632112852        2.1598931902       -0.1649654332
 O          4.6118439509        1.4851449273       -2.2308234167
 C          5.5956215037        0.5987541715        0.0435507986
 C          5.9656184796        1.2774257301        1.1880234055
 C          7.0769151226        0.8450330547        1.8952156253
 C          7.7962744835       -0.2519219186        1.4468775954
 C          7.4141147778       -0.9207490349        0.2934888013
 C          6.3047737948       -0.4929799178       -0.4180376714
 H          5.9767424192       -0.9831179141       -1.3192875283
 H          7.9759692469       -1.7733324077       -0.0525635738
 H          8.6597124549       -0.5871668868        1.9995600869
 H          7.3753791767        1.3647845049        2.7914931925
 H          5.3732831766        2.1224807513        1.5019641287
 H          2.9443800454       -0.3508549054       -2.0280414852
 H          3.5531867235       -0.0211596272        1.5340214628
 H          1.8483745173       -0.6093082826        3.2228854848
 H         -0.3443091572       -1.4906711353        2.5130494890
 H         -1.5914449166       -2.6393331608        0.8104241010
 C         -1.2147383173       -2.7479241704       -1.2691337335
 C         -2.4922123842       -3.0516889804       -1.9916649561
 C         -1.4771447975       -2.1429370763       -2.6142763742
 H         -0.9098904286       -2.5119623352       -3.4568157582
 H         -1.6895271590       -1.0865133389       -2.6643694127
 H         -2.6291828957       -4.0374866844       -2.4095771180
 H         -3.3980710886       -2.6111164632       -1.6012659211
 H         -0.4784305447       -3.5454217849       -1.2351143132
