  62
        -98.93347882
 C         -1.7780071532       -0.8887613048        0.4748161804
 C         -2.3003990602       -0.0812630558       -0.5654777980
 C         -3.5033333357        0.7026156487       -0.2299335476
 C         -3.9857527568        0.6711561975        1.0245124515
 C         -5.2473360652        1.3384450098        1.4933715132
 C         -6.4728608365        0.5175829988        1.0430398846
 C         -7.3731471872        1.2290783043        0.0327175774
 H         -8.0651274678        0.4854307092       -0.3683112740
 H         -7.9662596399        1.9827349356        0.5550097749
 C         -6.6564783330        1.9215644421       -1.1306556677
 H         -7.4151303988        2.1421996383       -1.8846228199
 H         -6.2605596999        2.8825052593       -0.7984598481
 C         -5.5230569775        1.1261195845       -1.7912818522
 H         -5.5691963824        1.3003627008       -2.8681914782
 H         -5.6640607338        0.0560310977       -1.6368256079
 C         -4.1077295957        1.5262214793       -1.3331899739
 H         -3.4202106572        1.4110710769       -2.1766872516
 H         -4.1004952239        2.5819498797       -1.0479191579
 H         -7.0762338939        0.2571615315        1.9139949754
 H         -6.1172220434       -0.4223359561        0.6154895213
 H         -5.2976483811        2.3507718883        1.0984781962
 H         -5.2033430830        1.3899040521        2.5815552497
 O         -3.4037183555       -0.0497915075        2.0184304217
 C         -2.2942260872       -0.8417451126        1.7717986787
 O         -1.8576683413       -1.4365768174        2.7778578231
 O         -1.8036871511       -0.0113240716       -1.7182264930
 C         -0.5728314951       -1.7892597769        0.2610768471
 C          0.5155410214       -1.0370606651       -0.4640380294
 C          1.0042553809       -1.3963396182       -1.7123899283
 C          2.0035744623       -0.6508546539       -2.3139816685
 C          2.5432412797        0.4545888396       -1.6836411390
 C          2.0696630920        0.8151452163       -0.4280966495
 C          1.0691452553        0.0676504200        0.1727707566
 H          0.6937644920        0.3541647958        1.1481447106
 N          2.6299092405        1.9243614314        0.2296326919
 S          4.2992531152        2.0504393268        0.2434140136
 O          4.6153338265        2.7781071145        1.4528972047
 O          4.7514141092        2.6518626289       -0.9863523944
 C          4.8927289955        0.3705426926        0.3472280945
 C          5.6633039188       -0.1539926462       -0.6701635034
 C          6.0790743002       -1.4731319178       -0.5841444648
 C          5.7150647076       -2.2418688656        0.5101716132
 C          4.9440915393       -1.6990204750        1.5269126774
 C          4.5274581990       -0.3803997895        1.4470636740
 H          3.9313351310        0.0720800990        2.2235913104
 H          4.6621390045       -2.2977793114        2.3781789902
 H          6.0336594193       -3.2703188356        0.5735992656
 H          6.6804037618       -1.8973394593       -1.3719074354
 H          5.9203978270        0.4780243154       -1.5044399955
 H          2.2414390083        2.0994816290        1.1443399730
 H          3.3109980714        1.0534616188       -2.1462005899
 H          2.3637929263       -0.9318109738       -3.2917202906
 H          0.5813337138       -2.2419307332       -2.2286986856
 H         -0.2042965490       -2.0094753631        1.2765876718
 C         -0.9055097844       -3.1306936493       -0.3750960101
 C         -2.2328726021       -3.7845280310       -0.1353303110
 C         -1.8852349625       -3.2721135616       -1.4992005014
 H         -1.6716401465       -3.9922686551       -2.2755936986
 H         -2.3721439272       -2.3788241160       -1.8561772505
 H         -2.2584174902       -4.8518593544        0.0253309612
 H         -2.9602836770       -3.2388120104        0.4486064006
 H         -0.0438161598       -3.7905803000       -0.3944122852
