  62
        -98.94008457
 C          2.6295308261        1.1464432963        0.2714818341
 C          2.5716266606        0.3065824265       -0.8686016745
 C          3.4302059593       -0.8884772047       -0.8276341961
 C          4.1934165302       -1.1221397390        0.2544180974
 C          5.0641711633       -2.3289933050        0.4479736584
 C          4.3005468654       -3.4540735738        1.1608338703
 C          2.9299147276       -3.7530654020        0.5527882149
 H          2.4974273695       -4.5812679153        1.1186254906
 H          2.2773743395       -2.8890193530        0.7006559844
 C          2.9613546587       -4.1134404735       -0.9391636830
 H          3.9721974115       -4.4034673293       -1.2280483025
 H          2.3163322461       -4.9791694491       -1.1030854908
 C          2.4662036074       -3.0055481997       -1.8708930377
 H          2.3250038573       -3.4364689765       -2.8655022018
 H          1.4921921719       -2.6453392896       -1.5294054047
 C          3.3984878734       -1.7971758625       -2.0242050962
 H          4.4045142442       -2.1370582734       -2.2779544062
 H          3.0198688285       -1.1902013579       -2.8516956585
 H          4.1563321440       -3.1669119220        2.2052049725
 H          4.9146166783       -4.3561281249        1.1389348597
 H          5.4194050377       -2.6736214882       -0.5211296178
 H          5.9217821020       -2.0410015338        1.0583319998
 O          4.2129020846       -0.3003869521        1.3358092727
 C          3.4174540223        0.8333498411        1.3812974107
 O          3.4929924592        1.4674788023        2.4535609035
 H          0.2211572715        0.4875527890        1.3747996987
 C         -0.3015494719        1.0329449218        0.5966928532
 C          0.3543716070        2.0731988598       -0.0516910785
 C         -0.3276752706        2.7688464938       -1.0401301753
 C         -1.6237410453        2.4167217845       -1.3756973233
 C         -2.2646945693        1.3694382010       -0.7409221384
 C         -1.5941824018        0.6697130168        0.2541577971
 N         -2.2289828438       -0.4104930568        0.8930978830
 S         -3.7706059393       -0.1724278938        1.5137061106
 O         -3.9770239646        1.2030972466        1.9044999868
 O         -3.9138506223       -1.1641254766        2.5576433854
 C         -4.8491677566       -0.5940272707        0.1617953626
 C         -5.8173247841        0.2998751907       -0.2516796846
 C         -6.6535793910       -0.0555962023       -1.2986783096
 C         -6.5080249769       -1.2918859014       -1.9090732569
 C         -5.5319487046       -2.1791119211       -1.4800852439
 C         -4.6937019138       -1.8306413184       -0.4332183983
 H         -3.9247395287       -2.4913874446       -0.0688590262
 H         -5.4209718827       -3.1392898163       -1.9577101554
 H         -7.1589369312       -1.5660408791       -2.7241987158
 H         -7.4130013567        0.6324162857       -1.6337643847
 H         -5.8889043173        1.2523578492        0.2488189079
 H         -1.6451482425       -0.8840273142        1.5670956800
 H         -3.2700588360        1.0871425842       -1.0076402880
 H         -2.1394643584        2.9617057276       -2.1516077173
 H          0.1617571780        3.5724625729       -1.5648858452
 C          1.7649027553        2.3906151633        0.3841094010
 H          1.7338648559        2.6166209782        1.4637098615
 C          2.3466054775        3.6217999925       -0.2945651317
 C          3.8256180363        3.7713448053       -0.4874564071
 C          2.9313299856        3.5772339908       -1.6730491808
 H          2.7622555447        4.4196754490       -2.3277736748
 H          2.9423916323        2.6251739222       -2.1787307952
 H          4.2667986944        4.7434492426       -0.3254500470
 H          4.4567891991        2.9501029573       -0.1795411701
 H          1.8078968795        4.5241588025       -0.0214874437
 O          1.8457868171        0.5274876382       -1.8706271199
