  62
        -98.93697717
 C          2.5136586846       -1.4507594960       -0.1394917234
 C          2.5135193123       -0.3703654628        0.7747543662
 C          3.6166050500        0.5951089133        0.6330294752
 C          4.5451636146        0.3999481090       -0.3205875452
 C          5.6830625030        1.3283845513       -0.6368395417
 C          5.1694260509        2.5340988810       -1.4494970944
 C          5.2788481010        3.8751669627       -0.7237538378
 H          6.3208736895        4.2014615449       -0.7357045239
 H          4.6983503215        4.6038394550       -1.2935961558
 C          4.8016799269        3.8866897454        0.7317663526
 H          4.6876833889        4.9335387987        1.0210724249
 H          5.5768026372        3.4688080452        1.3758544832
 C          3.4834865835        3.1532437194        1.0126432693
 H          2.9165773046        3.7383160789        1.7400877114
 H          2.8721745132        3.0961755184        0.1113742278
 C          3.6491482865        1.7414107760        1.6058011838
 H          4.5710024381        1.6978309277        2.1926361159
 H          2.8155045657        1.5518233853        2.2887979121
 H          5.7253879451        2.6057389057       -2.3854598224
 H          4.1269178293        2.3482090048       -1.7168482906
 H          6.4114490159        0.7620347536       -1.2174020803
 H          6.1538903815        1.6606787237        0.2855655872
 O          4.5111619485       -0.6523917211       -1.1786293511
 C          3.4965640498       -1.5912936746       -1.1210783277
 O          3.5799764908       -2.4917152744       -1.9796288546
 O          1.6459677266       -0.2154775692        1.6753103627
 C          1.4125213122       -2.4994118325       -0.1134214387
 C          0.1132708478       -1.8249461256       -0.4799909398
 C         -0.1147994506       -1.4873380283       -1.8117499318
 C         -1.2638546645       -0.8156475293       -2.1819838445
 C         -2.2063553692       -0.4579937281       -1.2324940178
 C         -1.9793345967       -0.7737883368        0.0993975746
 C         -0.8325200523       -1.4679345251        0.4664258507
 H         -0.6658237839       -1.6985929116        1.5064204015
 N         -2.9248069933       -0.4147185464        1.0732737059
 S         -3.6154604521        1.1124724795        1.0185697539
 O         -2.7323442041        2.0872713568        0.4216769724
 O         -4.0469295358        1.3774346758        2.3740024711
 C         -5.0548003730        0.8824813557       -0.0064966923
 C         -5.2782058491        1.7242667755       -1.0782581476
 C         -6.4110336337        1.5360211888       -1.8548649156
 C         -7.2968981980        0.5151883376       -1.5466099692
 C         -7.0599320552       -0.3199742966       -0.4649257264
 C         -5.9300542003       -0.1362673014        0.3158058927
 H         -5.7116102401       -0.7615529524        1.1651777463
 H         -7.7510357610       -1.1128911396       -0.2283704897
 H         -8.1769919541        0.3699152077       -2.1529572867
 H         -6.5967737613        2.1852496290       -2.6954475794
 H         -4.5590721300        2.5015489460       -1.2834251127
 H         -2.6422881096       -0.6478802153        2.0144376331
 H         -3.0986570301        0.0771824785       -1.5130439953
 H         -1.4287226448       -0.5639552591       -3.2187410687
 H          0.6311054641       -1.7504029263       -2.5495903560
 H          1.6609453111       -3.2148634349       -0.9086770783
 C          1.3768938247       -3.2358617333        1.2090128785
 C          0.6311562296       -4.5317459341        1.3083856868
 C          2.1290932103       -4.5237646538        1.3473158845
 H          2.6229241048       -4.7324854418        2.2845656244
 H          2.6671184578       -4.8824889873        0.4819931308
 H          0.0949771842       -4.7513009936        2.2190432561
 H          0.1496188460       -4.8970770450        0.4140678546
 H          1.3691373870       -2.5751918917        2.0673541817
