  62
        -98.94455464
 C         -1.8885437733       -1.4347001467       -0.0409549949
 C         -2.7095155405       -0.7292780068        0.8805854689
 C         -3.5593540845        0.3278292905        0.3239265422
 C         -3.5549860197        0.5545362288       -1.0018837583
 C         -4.4016412012        1.5599623833       -1.7344412260
 C         -3.8189286692        2.9797115366       -1.7518724972
 C         -3.8781971537        3.7208523960       -0.4156468788
 H         -3.6358696238        4.7661267166       -0.6175281718
 H         -4.8982620635        3.6921001122       -0.0315026995
 C         -2.9089132412        3.1828980343        0.6462799447
 H         -2.1565322748        2.5553192030        0.1628051740
 H         -2.3844881102        4.0178124052        1.1161795205
 C         -3.5720295475        2.3767645659        1.7629755355
 H         -4.2416130410        3.0231000591        2.3343775343
 H         -2.7903463985        2.0186695405        2.4375672539
 C         -4.3679477912        1.1596599390        1.2730753353
 H         -4.6110728103        0.5367674745        2.1371453828
 H         -5.2963480590        1.4813457273        0.8013744314
 H         -4.3848607389        3.5547422931       -2.4884420096
 H         -2.7833945145        2.9286387111       -2.0967039915
 H         -5.4009532989        1.5815784238       -1.2985015633
 H         -4.4801149690        1.2074355061       -2.7652830461
 O         -2.7675823060       -0.1494223573       -1.8549723713
 C         -1.9005907969       -1.1352611842       -1.4031141495
 O         -1.2211882979       -1.6437294045       -2.3192851578
 O         -2.7378856788       -0.9836158200        2.1132043836
 C         -1.0180236422       -2.5376951157        0.5390485390
 C          0.4105569761       -2.0888046185        0.7362308748
 C          0.9839147680       -2.0667319453        2.0022993764
 C          2.2977135464       -1.6663010057        2.1754445992
 C          3.0617891982       -1.2691493813        1.0931059183
 C          2.4901863066       -1.2683085163       -0.1732611537
 C          1.1779365378       -1.6836889929       -0.3466482311
 H          0.7408971805       -1.6817319520       -1.3341283113
 N          3.2429713652       -0.8306004804       -1.2760938947
 S          4.1546856765        0.5586387098       -1.0883226622
 O          4.2139308386        1.1616791949       -2.4013379562
 O          5.4263474432        0.2211720982       -0.4974977490
 C          3.2358931245        1.5977727142        0.0364310713
 C          1.9376951575        1.9360274963       -0.2908732923
 C          1.2126199724        2.7301556594        0.5823013813
 C          1.7932423867        3.1702832863        1.7619681867
 C          3.0993041693        2.8269505845        2.0735196901
 C          3.8292849903        2.0322703137        1.2042526989
 H          4.8459149309        1.7377665180        1.4081850074
 H          3.5488686849        3.1721340383        2.9904783015
 H          1.2212510038        3.7839043517        2.4397687444
 H          0.1958972402        2.9984493644        0.3424813839
 H          1.5092294817        1.5789991057       -1.2146827099
 H          2.7225876916       -0.8190389730       -2.1411778870
 H          4.0889906460       -0.9625918767        1.2070426823
 H          2.7318846928       -1.6618072481        3.1633026031
 H          0.3890509978       -2.3577972576        2.8554094580
 H         -1.4425305099       -2.7388449129        1.5317611915
 C         -1.0631348951       -3.8211338899       -0.2681439781
 C         -0.7132119784       -5.1141869848        0.4024443542
 C         -2.1332781589       -4.8297145552        0.0166780703
 H         -2.5643803830       -5.3708208702       -0.8122548182
 H         -2.8392347824       -4.6010793907        0.8018440012
 H         -0.1650051952       -5.8537827843       -0.1606276707
 H         -0.4569911653       -5.0810222687        1.4504577311
 H         -0.7647886764       -3.6923229697       -1.3005217934
