  62
        -98.94092686
 C         -2.2821177705       -0.5317621668        0.1422654922
 C         -3.5553221725       -1.0559501200        0.4705888634
 C         -4.6396438017       -0.0743962043        0.6034730723
 C         -4.3665987207        1.2324606306        0.4346970600
 C         -5.3841076376        2.3341836045        0.4938951137
 C         -5.9721315239        2.6229095486       -0.8943990806
 C         -6.4438768531        1.3728595799       -1.6372432251
 H         -6.8676073269        1.7008833281       -2.5889236201
 H         -5.5777462476        0.7488920390       -1.8696938392
 C         -7.4818432400        0.5361353132       -0.8763218996
 H         -7.9349857957        1.1367885776       -0.0869245298
 H         -8.2787910698        0.2545176681       -1.5676749366
 C         -6.9345986569       -0.7601618259       -0.2760279084
 H         -7.7827911257       -1.3719833859        0.0422415024
 H         -6.3965950836       -1.3209306475       -1.0444882673
 C         -6.0094698353       -0.5958188426        0.9364004114
 H         -5.8538535322       -1.5870433433        1.3721269338
 H         -6.4914080410        0.0367888447        1.6844265593
 H         -6.8068707171        3.3164835254       -0.7780128027
 H         -5.2052512053        3.1119762593       -1.4996437543
 H         -6.1767519743        2.0525549045        1.1843039610
 H         -4.8930034261        3.2351421919        0.8653742110
 O         -3.1253943215        1.7005793590        0.1426852323
 C         -2.0539106145        0.8342748401       -0.0203120925
 O         -0.9770082902        1.3970560371       -0.2982212178
 O         -3.7719189572       -2.2845186246        0.6501289337
 C         -1.1168461363       -1.4895178154       -0.0279079061
 C         -0.0078996458       -1.1231983966        0.9265100209
 C         -0.3065547165       -1.0093674652        2.2824492189
 C          0.6699237978       -0.6575365831        3.1927016578
 C          1.9632377616       -0.4059119006        2.7689872650
 C          2.2760576576       -0.5296774029        1.4209976088
 C          1.2946519828       -0.8992523963        0.5104774887
 H          1.5600187040       -0.9815301008       -0.5291139854
 N          3.5999858707       -0.3287114900        0.9823283829
 S          3.9101028666        0.5597503759       -0.4203350513
 O          3.4498126502        1.9228508813       -0.2673527728
 O          3.4221755498       -0.1648008293       -1.5650435474
 C          5.6937193769        0.5143432237       -0.4056948869
 C          6.4088908199        1.6396021389       -0.0438402264
 C          7.7935717866        1.5754816374       -0.0198445783
 C          8.4354210042        0.3926238287       -0.3534228541
 C          7.7037332436       -0.7290337451       -0.7152490552
 C          6.3196869535       -0.6708534823       -0.7429822009
 H          5.7103561115       -1.5133028612       -1.0253179663
 H          8.2065585598       -1.6463034908       -0.9760819398
 H          9.5127478715        0.3449295301       -0.3336664611
 H          8.3646308172        2.4467462304        0.2579566098
 H          5.8664963486        2.5386578033        0.2014558578
 H          4.1866345241        0.0280153527        1.7265321635
 H          2.7244838539       -0.1172983257        3.4783124587
 H          0.4224246892       -0.5679926864        4.2399381734
 H         -1.3213978570       -1.1921921224        2.6096769765
 H         -1.5064614832       -2.4778868668        0.2590763206
 C         -0.6818861366       -1.5416630038       -1.4768355917
 C         -0.0237783766       -2.7731150410       -2.0208267211
 C         -1.4236539364       -2.4286967691       -2.4295384938
 H         -1.5975050080       -2.0740618447       -3.4344697933
 H         -2.2342750299       -3.0184986708       -2.0268535283
 H          0.7702325835       -2.6524616996       -2.7423907922
 H          0.1166039560       -3.6023896369       -1.3441157343
 H         -0.3465945624       -0.5785383617       -1.8482511230
