  62
        -98.93798703
 C         -2.6255780482       -1.0104560283        0.5121551593
 C         -2.8772209850        0.1848260886        1.2364952064
 C         -4.1557154956        0.8514271631        0.9732040724
 C         -5.0186432427        0.3089570059        0.0953295493
 C         -6.3821101249        0.8409232807       -0.2538960831
 C         -6.3712767759        1.9381572608       -1.3267453522
 C         -5.8348175533        3.2932321409       -0.8640150618
 H         -6.0855084894        4.0190298091       -1.6401737472
 H         -6.3542503471        3.5969222813        0.0454155419
 C         -4.3181160741        3.3260083008       -0.6289462042
 H         -3.8542588688        2.4657739218       -1.1175881601
 H         -3.8969170436        4.2208368831       -1.0928111139
 C         -3.9039994070        3.3413081168        0.8426479785
 H         -4.2490676669        4.2660365017        1.3105220901
 H         -2.8121457842        3.3259416763        0.8901786877
 C         -4.4306056172        2.1547631541        1.6605467954
 H         -3.9084672173        2.1409598947        2.6203270368
 H         -5.4987024801        2.2693520482        1.8445364322
 H         -5.7867861705        1.5868001913       -2.1802492378
 H         -7.4016107586        2.0746651349       -1.6633147926
 H         -6.9572171642       -0.0062571772       -0.6338419876
 H         -6.8695272361        1.2160611618        0.6465211907
 O         -4.7451302103       -0.8378183124       -0.5773385477
 C         -3.5430788427       -1.5132869123       -0.4110359823
 O         -3.4453203826       -2.5256757432       -1.1317353576
 O         -2.0708908576        0.6635799244        2.0787324858
 C         -1.3052498647       -1.7066164749        0.7951618164
 C         -0.2623995926       -1.3532025054       -0.2394156625
 C         -0.3928264965       -1.7458958314       -1.5672697911
 C          0.5818698070       -1.4173078536       -2.4918600111
 C          1.7020085214       -0.6967348929       -2.1161925585
 C          1.8433968126       -0.3016392631       -0.7929622049
 C          0.8639988322       -0.6351084619        0.1352249164
 H          0.9695839607       -0.3150521929        1.1632048629
 N          2.9691996168        0.4456873683       -0.4053880742
 S          4.4642664976       -0.0107168414       -1.0477642777
 O          4.6033665024        0.5927062207       -2.3496132687
 O          4.6054941345       -1.4484454500       -0.9999715025
 C          5.5856718868        0.7631769575        0.1003524059
 C          6.1181141572        0.0137705878        1.1323064338
 C          6.9761942985        0.6264559546        2.0319380596
 C          7.2829509255        1.9710610568        1.8866210680
 C          6.7401750353        2.7100996256        0.8458130200
 C          5.8825254171        2.1036372345       -0.0580622768
 H          5.4453149418        2.6353723928       -0.8869743628
 H          6.9835224135        3.7544960477        0.7353247643
 H          7.9518835357        2.4452201982        2.5873551352
 H          7.4021702127        0.0539104653        2.8400899516
 H          5.8596186447       -1.0308557815        1.2007043425
 H          3.0187842011        0.5747367825        0.5958808728
 H          2.4700145023       -0.4413721782       -2.8287562425
 H          0.4693359968       -1.7268250298       -3.5204051450
 H         -1.2692499980       -2.2985622135       -1.8689920450
 H         -0.9705233702       -1.2933110957        1.7564725325
 C         -1.4303516721       -3.2102963856        0.9422805711
 C         -0.3657050514       -3.9549080961        1.6884086813
 C         -1.7289757428       -3.7926176386        2.2896428784
 H         -2.3768108908       -4.6543913068        2.3449669126
 H         -1.8436716025       -3.1068973598        3.1165464959
 H         -0.0724099464       -4.9296075483        1.3300795254
 H          0.4458533195       -3.3797156917        2.1080521697
 H         -1.8752971331       -3.6935456523        0.0827988023
