  62
        -98.94291931
 C         -2.0204379931       -1.0131963181        0.4240463645
 C         -2.6502800274        0.0411914965        1.1365605360
 C         -4.0736258287        0.2571897989        0.8590952520
 C         -4.7104663954       -0.5466808583       -0.0112688452
 C         -6.1669136914       -0.4767134031       -0.3821440754
 C         -6.4842062281        0.5510532599       -1.4769286320
 C         -6.4079980632        2.0138242667       -1.0376972831
 H         -6.8629976980        2.6107152149       -1.8306268273
 H         -7.0094215196        2.1544281345       -0.1390289219
 C         -4.9824665567        2.5274003104       -0.7906696314
 H         -4.8580083326        3.5020357141       -1.2680107083
 H         -4.2636276306        1.8496792372       -1.2572890822
 C         -4.6155835161        2.6964255269        0.6838621999
 H         -3.5748179083        3.0261161260        0.7425364675
 H         -5.2400488952        3.4733913282        1.1306914002
 C         -4.7545684381        1.4173489849        1.5197422914
 H         -4.2681673813        1.5834745738        2.4842333862
 H         -5.8070893414        1.1931769614        1.6926333940
 H         -5.8055706920        0.3874798161       -2.3171497770
 H         -7.4999624040        0.3516683223       -1.8259614137
 H         -6.7606021717       -0.2588883455        0.5061369847
 H         -6.4415144311       -1.4675653073       -0.7501870926
 O         -4.0807135464       -1.5609349600       -0.6563597194
 C         -2.7254482011       -1.8083881001       -0.4803463556
 O         -2.3034510777       -2.7511577515       -1.1772641545
 O         -2.0496154993        0.7632763741        1.9776560862
 C         -0.5417760616       -1.2300111967        0.6993763292
 C          0.3133606069       -0.5774103405       -0.3607742959
 C          0.2852459690       -1.0042587881       -1.6853147172
 C          1.0715708579       -0.3828143640       -2.6374313055
 C          1.9140769596        0.6585035087       -2.2874507373
 C          1.9516312538        1.0909473570       -0.9680450059
 C          1.1475051461        0.4766321633       -0.0166953793
 H          1.1778801262        0.8345626140        1.0015790837
 N          2.8005937873        2.1447572724       -0.5772634368
 S          3.9107093917        1.8580760654        0.6435077161
 O          3.2263749932        1.6089908304        1.8853188466
 O          4.8006119779        2.9967937131        0.6130121930
 C          4.7786043987        0.3942581191        0.1079190706
 C          4.2252446640       -0.8454486003        0.3597542452
 C          4.8628424428       -1.9741718252       -0.1302272756
 C          6.0362844704       -1.8454270184       -0.8572875213
 C          6.5816498176       -0.5933724306       -1.0981626418
 C          5.9451352599        0.5394659441       -0.6174710426
 H          6.3346010830        1.5318870678       -0.7776955323
 H          7.4962765666       -0.4967805912       -1.6606692247
 H          6.5284558881       -2.7270203252       -1.2365877746
 H          4.4364031879       -2.9466277222        0.0564219137
 H          3.3129132265       -0.9100701087        0.9295609174
 H          3.2618550153        2.6017443803       -1.3516620113
 H          2.5315413256        1.1391607454       -3.0313073427
 H          1.0346233826       -0.7183097056       -3.6627195956
 H         -0.3726572332       -1.8136316424       -1.9616226096
 H         -0.3508772867       -0.7048282691        1.6457280395
 C         -0.1651647924       -2.6872591953        0.8796551832
 C          1.0271996516       -3.0303529313        1.7193612008
 C         -0.3538464292       -3.3289142301        2.2197847599
 H         -0.6824101025       -4.3565661181        2.2566488824
 H         -0.7513109145       -2.7154875192        3.0156825545
 H          1.6518485463       -3.8561328658        1.4159113308
 H          1.5636788487       -2.2171463858        2.1864025793
 H         -0.3626663397       -3.2968381107        0.0080137139
