  62
        -98.93994683
 C         -2.7705063266       -0.0749803489        0.4130392503
 C         -2.8104263766       -1.0352519956       -0.6321734557
 C         -2.2645434746       -2.3595487858       -0.3288026316
 C         -1.7846558270       -2.6101250451        0.9022998225
 C         -1.1354798198       -3.8885740887        1.3568271253
 C          0.3535202082       -3.9685142071        0.9898337725
 C          0.6435983059       -4.2544977086       -0.4847544210
 H          1.6947806058       -4.5418027921       -0.5525644921
 H          0.0495015941       -5.1077655292       -0.8150602090
 C          0.4000290173       -3.0583876965       -1.4159962623
 H          1.2361958908       -2.9653725536       -2.1137827291
 H          0.3758964608       -2.1399703583       -0.8241048751
 C         -0.8731763473       -3.1528833375       -2.2576319298
 H         -0.9745753465       -2.2251875740       -2.8270124885
 H         -0.7814832846       -3.9784002991       -2.9678670198
 C         -2.1607848192       -3.3510245222       -1.4482148932
 H         -3.0113553130       -3.1873220353       -2.1149001535
 H         -2.2101101737       -4.3679260759       -1.0593986829
 H          0.8307900116       -3.0267539516        1.2739561864
 H          0.7965433905       -4.7668247076        1.5903822175
 H         -1.6662982659       -4.7450631200        0.9395555924
 H         -1.2267059769       -3.9162281730        2.4448248666
 O         -1.8480893534       -1.6978822380        1.9048531697
 C         -2.2820639693       -0.3936061781        1.6807680289
 O         -2.2039714605        0.3289006058        2.6926307469
 O         -3.2736871995       -0.7817107424       -1.7774679522
 C         -3.1201486787        1.3439956933       -0.0044115461
 C         -1.9740742583        1.8796624045       -0.8320867061
 C         -2.1849909410        2.6572219644       -1.9634064270
 C         -1.1108415162        3.1042520201       -2.7142690402
 C          0.1844055035        2.7640408975       -2.3701642879
 C          0.4049019219        1.9664806295       -1.2505395060
 C         -0.6707859477        1.5609121903       -0.4780441649
 H         -0.4903475102        0.9667831929        0.4048313571
 N          1.6981350622        1.5245933022       -0.9330391635
 S          2.0559702982        0.8252270961        0.5548359089
 O          1.3647754742       -0.4326402813        0.6674155908
 O          1.8530766358        1.7843758707        1.6193987405
 C          3.7973510379        0.5270518837        0.3239872798
 C          4.1848437269       -0.6215799834       -0.3395037650
 C          5.5351759184       -0.8508416715       -0.5499195719
 C          6.4703565597        0.0676324111       -0.0961514355
 C          6.0667636165        1.2144727467        0.5709390993
 C          4.7174209428        1.4497737901        0.7840705025
 H          4.3574358819        2.3209051860        1.3075885227
 H          6.7962709730        1.9242182915        0.9263113827
 H          7.5207837212       -0.1133876194       -0.2605486896
 H          5.8523606437       -1.7433755618       -1.0646103203
 H          3.4209133466       -1.3092323370       -0.6642216940
 H          2.4362867657        2.1259856538       -1.2690612075
 H          1.0184126725        3.0938357997       -2.9699093618
 H         -1.2855594433        3.7140408907       -3.5876786999
 H         -3.1948515403        2.8935685883       -2.2646822386
 H         -3.9919427649        1.2569705731       -0.6740654672
 C         -3.5061055260        2.2723741931        1.1334883016
 C         -2.5447346354        3.2413800904        1.7466304151
 C         -3.6703321557        3.7447328689        0.8963057773
 H         -4.4914416831        4.2524497789        1.3789512506
 H         -3.4223703291        4.1284792301       -0.0812862787
 H         -2.5876354023        3.3792861122        2.8160878477
 H         -1.5398841737        3.2763059483        1.3521967495
 H         -4.2111265499        1.8060428458        1.8131402624
