  62
        -98.94366650
 C         -1.6696509597       -0.5894093919       -0.2751351167
 C         -2.9181491216       -1.1498070619       -0.6357525474
 C         -4.0712604306       -0.6999718676        0.1518392359
 C         -3.8895117050        0.1661084018        1.1655465991
 C         -4.9622972390        0.6978916504        2.0770422842
 C         -5.7243528208        1.9027822340        1.5083432342
 C         -6.6950957003        1.5813074848        0.3713413535
 H         -7.3573009865        0.7711519824        0.6784081187
 H         -7.3143882784        2.4674966038        0.2186162719
 C         -6.0167137974        1.2191464550       -0.9572617657
 H         -4.9743639286        1.5451790715       -0.9353404876
 H         -6.5033446962        1.7578948093       -1.7734318094
 C         -6.0612346847       -0.2682504903       -1.3073561347
 H         -5.5211097230       -0.4154823951       -2.2461232426
 H         -7.0971082015       -0.5777837652       -1.4632780210
 C         -5.4315273504       -1.1847382122       -0.2501429253
 H         -6.0831992907       -1.2581988889        0.6202753718
 H         -5.3146285198       -2.1804294787       -0.6852428561
 H         -6.2941266545        2.3446277087        2.3291012389
 H         -4.9991758657        2.6458659350        1.1690866338
 H         -5.6668181892       -0.0984878795        2.3183832807
 H         -4.4616713094        1.0098663663        2.9960914195
 O         -2.6671735468        0.6576568672        1.5002288451
 C         -1.5306891921        0.3096588865        0.7825936551
 O         -0.4857030700        0.8549190834        1.1821967941
 O         -3.0605074620       -1.9900615529       -1.5646792337
 C         -0.4315199831       -0.9912609058       -1.0565722068
 C          0.5651768098       -1.6362251521       -0.1267256572
 C          0.1666166891       -2.7455219050        0.6158882990
 C          1.0378642593       -3.3521229539        1.4987315245
 C          2.3238245337       -2.8663441925        1.6614760748
 C          2.7323196809       -1.7609448566        0.9249325219
 C          1.8558787369       -1.1598388971        0.0307299606
 H          2.1925356548       -0.3128851344       -0.5402606139
 N          4.0099711049       -1.2250994885        1.1049393359
 S          4.7821448719       -0.2882334954       -0.0319780044
 O          4.6424153812       -0.8318394717       -1.3629750094
 O          6.1381293791       -0.1832413250        0.4637091041
 C          3.9917315556        1.3031918704        0.0710125267
 C          3.7336951570        1.8401236991        1.3157723567
 C          3.1280682160        3.0834585511        1.3946756815
 C          2.7944368059        3.7656463831        0.2350125086
 C          3.0657159614        3.2155164311       -1.0080475226
 C          3.6723000249        1.9729878448       -1.0930484658
 H          3.8946723908        1.5026220006       -2.0381388680
 H          2.8033499184        3.7473754969       -1.9089332503
 H          2.3164712001        4.7305211191        0.3001192626
 H          2.9107490503        3.5133641027        2.3591652275
 H          3.9996205705        1.2811920826        2.1974770848
 H          4.6360933725       -1.7409685222        1.7028426875
 H          3.0031529094       -3.3345254069        2.3572536490
 H          0.7154985688       -4.2112889693        2.0677535053
 H         -0.8401104218       -3.1213323340        0.4927924972
 H         -0.7728878671       -1.7520677314       -1.7741319628
 C          0.1197155322        0.1909591967       -1.8248771823
 C          0.9399577223       -0.0342771879       -3.0583540048
 C         -0.4512560318        0.5104002206       -3.1727492850
 H         -0.5790678067        1.5468825289       -3.4461576821
 H         -1.2266950805       -0.1397330532       -3.5510431151
 H          1.7703333456        0.6264090037       -3.2549870062
 H          1.1160923309       -1.0553624328       -3.3614296096
 H          0.3796589090        1.0250073556       -1.1819820956
