  62
        -98.94427452
 C         -1.3315501453       -1.4265048544        0.6469666904
 C         -2.1391926489       -1.0090051356       -0.4407745641
 C         -3.1085002017        0.0543708430       -0.1455744262
 C         -3.1672793660        0.5917581378        1.0851394571
 C         -4.0902465783        1.6927458494        1.5302139338
 C         -3.5716494944        3.0979919394        1.1945075579
 C         -3.6561355864        3.4887992306       -0.2816587293
 H         -4.6645670301        3.2989101833       -0.6517776212
 H         -3.4851390090        4.5659218881       -0.3356301915
 C         -2.6322849967        2.7868029078       -1.1853578974
 H         -1.8150121492        2.3879268272       -0.5781802120
 H         -2.1822796311        3.5198002195       -1.8599445029
 C         -3.2114653019        1.6707514654       -2.0559193361
 H         -3.9048047700        2.0995216173       -2.7837157184
 H         -2.3880295237        1.2070351819       -2.6054157699
 C         -3.9428402496        0.5685614165       -1.2792834668
 H         -4.8997629407        0.9384572243       -0.9116585410
 H         -4.1263195094       -0.2641412783       -1.9630590296
 H         -2.5334179892        3.1774336975        1.5272188121
 H         -4.1634373231        3.8119524212        1.7725187959
 H         -5.0768587097        1.5504921054        1.0883899096
 H         -4.1780565528        1.6078499875        2.6156091870
 O         -2.3655332659        0.1755348308        2.1006383596
 C         -1.4023944601       -0.7987772842        1.8924129416
 O         -0.6751399012       -1.0151520783        2.8842333489
 H          0.5775757393        0.0271817366       -0.0660305483
 C          0.9715457996       -0.6567914578       -0.8009713333
 C          0.6401588240       -2.0026374810       -0.7195809324
 C          1.1213355895       -2.8606444646       -1.6987776337
 C          1.9030820345       -2.3682224746       -2.7309649659
 C          2.2315396226       -1.0266938024       -2.8050043472
 C          1.7507434155       -0.1593092425       -1.8297747482
 N          2.0312378438        1.2134356652       -1.8636528413
 S          2.1146157269        2.0991531863       -0.4518855691
 O          0.8026906091        2.2916792824        0.1137939321
 O          2.8172091589        3.3051083470       -0.8361517277
 C          3.1458985298        1.1324041394        0.6372705581
 C          4.4756288516        0.9922392021        0.2874443641
 C          5.3039377844        0.2192650499        1.0834022576
 C          4.7902579753       -0.4040702597        2.2109951393
 C          3.4562601263       -0.2494206215        2.5526723352
 C          2.6233748549        0.5267002993        1.7611743793
 H          1.5807784243        0.6570330688        2.0087066962
 H          3.0474427319       -0.7309115249        3.4269625438
 H          5.4319471181       -1.0112872600        2.8296285572
 H          6.3434035746        0.1024725067        0.8228398355
 H          4.8396780856        1.5022251536       -0.5895249728
 H          2.7049597879        1.5094061122       -2.5531145713
 H          2.8368322120       -0.6493676033       -3.6146072841
 H          2.2637932957       -3.0429923243       -3.4924473968
 H          0.8688811378       -3.9078252609       -1.6695263307
 C         -0.2035398425       -2.4275546052        0.4596279166
 H          0.4221708767       -2.3093054892        1.3609822170
 C         -0.6264429022       -3.8883678358        0.4227661992
 C         -1.9545827178       -4.3265734767        0.9626023068
 C         -1.6831155553       -4.3986359684       -0.5085749977
 H         -1.5441179963       -5.3726627218       -0.9548807544
 H         -2.1609022041       -3.6807585519       -1.1554614156
 H         -2.0007872626       -5.2456993713        1.5276558034
 H         -2.6267022002       -3.5592732573        1.3198728377
 H          0.2077364005       -4.5549122854        0.6193637569
 O         -2.0618274948       -1.4831766754       -1.6028954197
