  62
        -98.94426031
 C          1.9703578199        1.1620005995       -0.1863789996
 C          2.3872419400       -0.0267565104       -0.8322563997
 C          3.8345114100       -0.2887872103       -0.8148632797
 C          4.6591058699        0.5918743997       -0.2194605596
 C          6.1437753499        0.4202655298       -0.0832457596
 C          6.5021072799       -0.2942013703        1.2274467004
 C          5.6949477100       -1.5681847904        1.4775344502
 H          4.6455999400       -1.3032099105        1.6265223402
 H          6.0530773500       -2.0015384605        2.4138673602
 C          5.7970959101       -2.6141529903        0.3586524901
 H          5.9496960602       -3.5966855103        0.8101649600
 H          6.6670211101       -2.4060025901       -0.2653315499
 C          4.5535475001       -2.7194970903       -0.5262656300
 H          3.6649874101       -2.8357536904        0.0998150000
 H          4.6444069502       -3.6232362502       -1.1349860100
 C          4.3156397201       -1.5453043202       -1.4841073398
 H          3.5205911201       -1.8381127902       -2.1764396799
 H          5.2212393201       -1.3525900000       -2.0630912898
 H          6.3217187598        0.3934320496        2.0568636904
 H          7.5668724999       -0.5335661103        1.2098557704
 H          6.5177448200       -0.1474395101       -0.9330024696
 H          6.6061007198        1.4087492598       -0.0862744994
 O          4.2214003598        1.7297396996        0.3776310305
 C          2.8718441398        2.0372803795        0.4201419805
 O          2.6042522397        3.0993002494        1.0176298006
 H         -1.5020703000       -0.1762936006       -1.0537505998
 C         -1.2391742300       -0.3314142707       -0.0216853599
 C         -0.2587164601        0.4363366193        0.5843866603
 C          0.0696359199        0.1750571892        1.9133385902
 C         -0.5599478001       -0.8362400110        2.6111068901
 C         -1.5375024700       -1.6037841510        2.0010902400
 C         -1.8732582400       -1.3522500308        0.6766046400
 N         -2.8407486599       -2.1375122708        0.0319530299
 S         -3.9989600299       -1.4669252008       -0.9658663301
 O         -4.9594689499       -2.5298967608       -1.1631742602
 O         -3.3943055999       -0.9230003606       -2.1540346200
 C         -4.7332827101       -0.1674146710        0.0101546801
 C         -4.2370443201        1.1174272791       -0.0778414098
 C         -4.7816985402        2.1010119990        0.7329753703
 C         -5.8059936902        1.7855408988        1.6120731502
 C         -6.2957167301        0.4901204988        1.6861357601
 C         -5.7527244201       -0.4983894911        0.8819316300
 H         -6.1108799400       -1.5150143011        0.8993760899
 H         -7.0958016602        0.2487903286        2.3672437100
 H         -6.2264345803        2.5550233387        2.2402116403
 H         -4.4030843603        3.1090891390        0.6739976704
 H         -3.4443355601        1.3287032892       -0.7759162697
 H         -3.2407228599       -2.8644321609        0.6066834098
 H         -2.0252552600       -2.4009203810        2.5413386099
 H         -0.2908601701       -1.0296490511        3.6386103901
 H          0.8376195398        0.7734550592        2.3852104603
 C          0.4959817598        1.5278407994       -0.1339238296
 H          0.4353079998        2.4423332193        0.4732971705
 C         -0.0224371701        1.8336814995       -1.5225503696
 C         -1.1848175202        2.7621036695       -1.6994318495
 C          0.1936488298        3.2037939596       -2.0884773394
 H          0.4315204398        3.2964406197       -3.1375516494
 H          0.6966303497        3.9256181496       -1.4612088793
 H         -1.6157703603        3.1955362493       -0.8092861195
 H         -1.8968447902        2.5522305795       -2.4841987996
 H          0.0709832899        0.9968343396       -2.2051495797
 O          1.5990947200       -0.8299291504       -1.3963274698
