  62
        -98.93776016
 C         -2.1273107712       -1.0540586991       -0.0852528004
 C         -2.9904858501       -0.6591735734        0.9701972530
 C         -3.7999250312        0.5463797776        0.7454611924
 C         -3.6627751233        1.2164695840       -0.4128189829
 C         -4.4572795929        2.4229388251       -0.8250290400
 C         -5.8667549991        1.9962169906       -1.2827044063
 C         -6.9989198717        2.5005578690       -0.3877226536
 H         -7.1618854909        3.5619069444       -0.5864084295
 H         -7.9068845949        1.9675834232       -0.6776375261
 C         -6.7819048274        2.3339312352        1.1192788941
 H         -6.1257648381        3.1250763575        1.4851529309
 H         -7.7510658375        2.4868347532        1.5987274260
 C         -6.2172180316        0.9804891199        1.5698208044
 H         -6.4406454950        0.2065544360        0.8353503024
 H         -6.7195419873        0.6945856294        2.4960756492
 C         -4.7055447534        0.9824145736        1.8641811579
 H         -4.4019247588        1.9737453465        2.2122768927
 H         -4.5063611166        0.2754959125        2.6749369243
 H         -6.0446265319        2.3581182247       -2.2964755017
 H         -5.8953829966        0.9056127342       -1.3291797806
 H         -4.5186837260        3.1227540592        0.0055371272
 H         -3.9189658389        2.9009221036       -1.6439392108
 O         -2.8176616610        0.8164532406       -1.3963789246
 C         -2.0273026548       -0.3158737362       -1.2639728352
 O         -1.3104249375       -0.5368533337       -2.2610745256
 H          0.6883016831       -1.3794922856       -1.5054707698
 C          1.0039226492       -1.3883009632       -0.4733248548
 C          0.1296255440       -1.8388935270        0.5055510987
 C          0.5407832252       -1.7979015027        1.8335502469
 C          1.7943864781       -1.3187380526        2.1693705155
 C          2.6588921693       -0.8612910542        1.1906827181
 C          2.2515617315       -0.8852185573       -0.1363651848
 N          3.1134274662       -0.3899189230       -1.1363743344
 S          3.6097795340        1.2076043155       -0.9518676113
 O          2.6414040284        1.9834450080       -0.2099912762
 O          3.9228132405        1.6716102192       -2.2861362160
 C          5.1223749435        1.0678962590       -0.0213645532
 C          6.1351760168        0.2852284381       -0.5407201686
 C          7.3195249052        0.1666729448        0.1687755139
 C          7.4713979818        0.8310952088        1.3768788392
 C          6.4466581453        1.6161231058        1.8827328289
 C          5.2586504974        1.7379516652        1.1785698618
 H          4.4313175013        2.3308470489        1.5350050094
 H          6.5661737875        2.1321962924        2.8217962463
 H          8.3937769882        0.7366522451        1.9277965508
 H          8.1186591002       -0.4427552891       -0.2213380952
 H          5.9763750648       -0.2107500436       -1.4836081114
 H          2.7402683292       -0.5195533200       -2.0671044456
 H          3.6326416804       -0.4757773972        1.4454608874
 H          2.0998118771       -1.2950989170        3.2043061373
 H         -0.1427764416       -2.1249580451        2.6038122147
 C         -1.2682860086       -2.2871096887        0.1532865966
 H         -1.6997154960       -2.7691539440        1.0404841411
 C         -1.2985204293       -3.2754223546       -0.9939395345
 C         -0.8400865958       -4.6811989488       -0.7504116622
 C         -2.2944521462       -4.3944189200       -0.9689223480
 H         -2.7483285384       -4.6990984208       -1.9000292849
 H         -2.9597030022       -4.4528963972       -0.1199027525
 H         -0.5184101213       -4.9336382217        0.2485363878
 H         -0.2922464131       -5.1864472741       -1.5307863957
 H         -1.0805625168       -2.8326686708       -1.9569812057
 O         -3.0801276523       -1.2936315977        2.0549135893
