  62
        -98.94588570
 C         -1.6911694418       -1.3043710624        0.4221408798
 C         -1.2980196679       -0.2149825632       -0.3916329120
 C         -1.8972308017        1.0828138433       -0.0597168404
 C         -2.7110715006        1.1939738115        1.0042587721
 C         -3.3777437386        2.4544277062        1.4846612098
 C         -4.6812569474        2.7940047957        0.7481316966
 C         -4.5088220766        3.3004120125       -0.6845935399
 H         -5.4731010635        3.7051351325       -0.9982610427
 H         -3.7919146612        4.1219719901       -0.6927896935
 C         -4.0741849946        2.2246201669       -1.6896051369
 H         -4.6846053833        2.3017548371       -2.5920195244
 H         -4.2555463800        1.2351025883       -1.2637008775
 C         -2.6108092447        2.3165232461       -2.1218818461
 H         -2.4026094126        1.4883991706       -2.8037571394
 H         -2.4469418052        3.2500410917       -2.6643545047
 C         -1.6067479584        2.2423852619       -0.9638732456
 H         -0.6063354800        2.0977800385       -1.3790775916
 H         -1.6118513848        3.1732835991       -0.3968509744
 H         -5.3218691599        1.9089445054        0.7480764620
 H         -5.1878032506        3.5699759480        1.3267433127
 H         -2.6800182864        3.2887985352        1.4034346596
 H         -3.6078320988        2.2994950924        2.5412584948
 O         -3.0144901830        0.1366691591        1.8045475007
 C         -2.5132093557       -1.1266507250        1.5364723762
 O         -2.8638107027       -1.9999213848        2.3573214479
 O         -0.4902240705       -0.3092261732       -1.3521103717
 C         -1.1352071201       -2.7009613590        0.1994997862
 C          0.3524422656       -2.6143684937       -0.0433380147
 C          1.0056894742       -3.2200277216       -1.1087546742
 C          2.3737849463       -3.0762789170       -1.2663182439
 C          3.1121615591       -2.3078824147       -0.3855968959
 C          2.4665047237       -1.6979943327        0.6839383284
 C          1.1068239055       -1.8811405209        0.8654543585
 H          0.6198910432       -1.4006144708        1.7026024521
 N          3.1625757499       -0.8737217802        1.5953536122
 S          2.7582425610        0.7541815648        1.5902662286
 O          3.6183863864        1.3585322469        2.5860714287
 O          1.3407723814        0.9110983218        1.7910883667
 C          3.2482610381        1.3238114737       -0.0287457740
 C          2.4542227299        1.0308280245       -1.1193598830
 C          2.8873658344        1.4175984596       -2.3791325484
 C          4.0956613472        2.0803139835       -2.5273265852
 C          4.8813804304        2.3651545189       -1.4204211586
 C          4.4581691739        1.9792933662       -0.1591803930
 H          5.0329886546        2.1798182311        0.7306409821
 H          5.8203972836        2.8820596006       -1.5361855317
 H          4.4254923296        2.3763218777       -3.5107326658
 H          2.2711525431        1.1909064691       -3.2344997689
 H          1.5152446842        0.5154105613       -0.9844984280
 H          4.1683984131       -0.9580579558        1.5293004350
 H          4.1744272306       -2.1726151637       -0.5241135803
 H          2.8674002817       -3.5522917208       -2.0997482692
 H          0.4424626445       -3.7882861679       -1.8304454130
 H         -1.2869762186       -3.2226272077        1.1596350360
 C         -1.8779954712       -3.5062009003       -0.8572174418
 C         -3.2979690910       -3.1868705076       -1.2161617411
 C         -2.2014354776       -2.9378186221       -2.2051859079
 H         -2.1334090431       -3.5869031003       -3.0659032780
 H         -1.9029098676       -1.9199260208       -2.3977725859
 H         -3.9778756478       -4.0071285141       -1.3918086246
 H         -3.7575381862       -2.3368149029       -0.7323031031
 H         -1.6231268412       -4.5607254254       -0.8186542311
