  62
        -98.94338126
 C          1.9492036158        0.8583194314        0.0453504158
 C          2.2346298592       -0.1154509964        1.0301165534
 C          2.5779749754       -1.4532268091        0.5326801344
 C          2.5600546091       -1.6854553563       -0.7927262949
 C          2.9324951906       -2.9877480654       -1.4395124130
 C          4.4276933273       -3.0311872013       -1.7857354412
 C          5.3413739608       -2.6183571717       -0.6318682429
 H          6.3712107317       -2.7131466945       -0.9825049221
 H          5.1735835903       -1.5629659175       -0.4055404039
 C          5.1590213127       -3.4451148731        0.6485147397
 H          6.1440162517       -3.7098794444        1.0384406061
 H          4.6399199033       -4.3759808563        0.4178531682
 C          4.4167736422       -2.7182439306        1.7714256653
 H          4.8768391988       -1.7419549548        1.9436154220
 H          4.5315548526       -3.3008978970        2.6892826101
 C          2.9133163005       -2.5076947442        1.5497758237
 H          2.4404904966       -3.4571574287        1.2889816401
 H          2.4810398855       -2.1599518138        2.4930785983
 H          4.6776402911       -4.0441852764       -2.1060965554
 H          4.6074283715       -2.3542538538       -2.6239384510
 H          2.6784524626       -3.8049181549       -0.7670366036
 H          2.3506094532       -3.0919312321       -2.3568197426
 O          2.2451856930       -0.7341852652       -1.7084346714
 C          1.9323034126        0.5586112705       -1.3164889996
 O          1.6680581328        1.3312842736       -2.2576443001
 H         -0.5445466551        0.6527709814        0.2585675665
 C         -0.7833264036        1.6666632827       -0.0301112712
 C          0.2044272041        2.6423230826        0.0065508672
 C         -0.1322436825        3.9397023260       -0.3602947631
 C         -1.4222092133        4.2421482453       -0.7605576709
 C         -2.3998626255        3.2662187691       -0.8012919665
 C         -2.0723341466        1.9628257127       -0.4408696002
 N         -3.0316524909        0.9410047935       -0.5212814832
 S         -2.8621712665       -0.4610347894        0.3924718173
 O         -2.6330451024       -0.1322751532        1.7826381614
 O         -1.8863782370       -1.3174789435       -0.2357258736
 C         -4.4930746826       -1.1541571817        0.1930676167
 C         -4.7703945277       -1.8903254426       -0.9432363710
 C         -6.0465914444       -2.4028509870       -1.1148824730
 C         -7.0193130971       -2.1713693482       -0.1535332892
 C         -6.7259822957       -1.4324372021        0.9827172652
 C         -5.4518708426       -0.9162331318        1.1598984788
 H         -5.1743570129       -0.3449014735        2.0310662214
 H         -7.4829038183       -1.2570482214        1.7300139158
 H         -8.0112528578       -2.5722639044       -0.2894329314
 H         -6.2767812178       -2.9804285951       -1.9955748511
 H         -3.9792850788       -2.0506949773       -1.6573450998
 H         -3.9832690575        1.2796322296       -0.5389514752
 H         -3.4037874818        3.5026473024       -1.1185831333
 H         -1.6696571536        5.2541367572       -1.0430827356
 H          0.6170800425        4.7138717482       -0.3339036236
 C          1.5864570142        2.2635834565        0.4825084642
 H          1.5657606278        2.2306583282        1.5834879127
 C          2.6569587098        3.2436192803        0.0442798203
 C          2.9998698140        4.4304483498        0.8929987549
 C          3.9530375439        3.2787718422        0.7957463298
 H          4.8691373175        3.4081603260        0.2393855480
 H          4.0475490155        2.6185251290        1.6458570467
 H          2.4569502423        4.5580674192        1.8174230700
 H          3.2655255440        5.3549627387        0.4028073580
 H          2.6998011862        3.3514935124       -1.0338594081
 O          2.2066578359        0.1254597274        2.2693945673
