  62
        -98.94487693
 C          2.4416586892        1.1207083953       -0.0486056513
 C          3.0963987745        0.3340557142        0.9367432676
 C          3.6491106990       -0.9468817637        0.4888428262
 C          3.5323329790       -1.3052261593       -0.8021720300
 C          4.0414511803       -2.5793032707       -1.4188355336
 C          3.0868916395       -3.7696277915       -1.2503815865
 C          3.0193735451       -4.3534728873        0.1615168143
 H          2.4966924832       -5.3090515202        0.0865477845
 H          4.0294457709       -4.5604141341        0.5167091560
 C          2.2839902160       -3.4697231220        1.1790069241
 H          1.5956237475       -4.0848234925        1.7632274955
 H          1.6749223487       -2.7318264579        0.6498741254
 C          3.1970835335       -2.7471079123        2.1700781509
 H          3.7029162893       -3.4803834810        2.8020647987
 H          2.5736786625       -2.1195022059        2.8118045895
 C          4.2577425107       -1.8508983290        1.5177800585
 H          4.6986582488       -1.2211254992        2.2942111277
 H          5.0431412638       -2.4601078638        1.0713837575
 H          3.4225458918       -4.5559315330       -1.9306872256
 H          2.0858655806       -3.4627034656       -1.5650320323
 H          5.0156031153       -2.8289438637       -0.9974981917
 H          4.1624166870       -2.3827440660       -2.4863072984
 O          2.9295598096       -0.5115694604       -1.7243023926
 C          2.3399529869        0.6942918799       -1.3725631858
 O          1.7879477209        1.2681367713       -2.3351172888
 O          3.2151216385        0.6932411195        2.1379415367
 C          1.7987657504        2.4115607970        0.4364800542
 C          0.3334466047        2.1520753730        0.6921667977
 C         -0.1752242749        2.1198425647        1.9853979296
 C         -1.5023081376        1.7999440159        2.2142996545
 C         -2.3438201127        1.4892612354        1.1605883286
 C         -1.8414785543        1.5124329904       -0.1333983045
 C         -0.5209004106        1.8611241461       -0.3625002574
 H         -0.1368252131        1.8559167954       -1.3721006375
 N         -2.6812179818        1.1299120524       -1.2099801521
 S         -2.9234819979       -0.5398053954       -1.2734958111
 O         -1.7683500947       -1.2612912545       -0.7847361080
 O         -3.3322314862       -0.8259448390       -2.6316974525
 C         -4.3051630308       -0.7876629517       -0.1792517698
 C         -4.1347953634       -1.4908677121        0.9968109860
 C         -5.2226491797       -1.6579475310        1.8398710356
 C         -6.4532038074       -1.1208078594        1.4937273030
 C         -6.6079559592       -0.4190789487        0.3071098856
 C         -5.5249953955       -0.2491103532       -0.5404362321
 H         -5.5988747190        0.2840680330       -1.4734841921
 H         -7.5666612621       -0.0039097962        0.0413007735
 H         -7.2969225889       -1.2505458772        2.1529535633
 H         -5.1041097856       -2.2033539586        2.7622992241
 H         -3.1571484669       -1.8842109464        1.2256486031
 H         -2.3055482627        1.4223029813       -2.1030790611
 H         -3.3750420506        1.2257864973        1.3307263612
 H         -1.8824943764        1.7806961896        3.2241380306
 H          0.4862765531        2.3241482487        2.8146842411
 H          2.2763142014        2.6251859711        1.4021010458
 C          2.0184104030        3.5967382135       -0.4802540345
 C          1.8606513287        4.9794276327        0.0755000289
 C          3.2229016076        4.4641660651       -0.2771847048
 H          3.7197929124        4.8645952261       -1.1479961673
 H          3.8951714030        4.2047737044        0.5275735049
 H          1.4195418999        5.7384968908       -0.5518858697
 H          1.6096221916        5.0711810618        1.1212762768
 H          1.7015702724        3.4228767790       -1.5001149899
