  62
        -98.94013404
 C          2.6193235597        0.7236401706       -0.0308988905
 C          2.1713515600       -0.2150790595       -0.9948448805
 C          2.6075869604       -1.6043910894       -0.7826333504
 C          3.4004861805       -1.9151368691        0.2576601395
 C          3.9726852510       -3.2719087989        0.5698323496
 C          3.0293694913       -4.1919693992        1.3556591696
 C          1.8513430214       -4.7470905896        0.5548094197
 H          2.2198775215       -5.2036340995       -0.3643364103
 H          1.3987488317       -5.5390158597        1.1546890098
 C          0.7741140211       -3.7071840799        0.2177982997
 H         -0.2158134088       -4.1193545502        0.4246284998
 H          0.8885447708       -2.8319387399        0.8617226397
 C          0.7639245509       -3.2396555500       -1.2373531203
 H          0.4942416311       -4.0735041601       -1.8903633103
 H         -0.0086863394       -2.4716143502       -1.3316414703
 C          2.0935824807       -2.6498760196       -1.7255742104
 H          2.8315804309       -3.4422306494       -1.8554523804
 H          1.9199355405       -2.1692467297       -2.6918566904
 H          2.6534466311       -3.6473540293        2.2247078196
 H          3.6237769516       -5.0330953890        1.7199534197
 H          4.2706068811       -3.7623196389       -0.3574517304
 H          4.8655043309       -3.0972712986        1.1742276895
 O          3.8159699203       -0.9844131190        1.1579027495
 C          3.4194714499        0.3364572509        1.0479402695
 O          3.8563155297        1.0737640411        1.9561733494
 H         -0.0536037703        0.7563572798       -0.1112558804
 C         -0.1374630106        1.6620313698        0.4687611696
 C          0.9529913592        2.5085079901        0.6022727495
 C          0.8076494188        3.6740111801        1.3474181994
 C         -0.4029842212        3.9871723298        1.9370224895
 C         -1.4899171310        3.1444096294        1.7961917096
 C         -1.3527244206        1.9686627394        1.0655064796
 N         -2.4293312204        1.0743496691        0.9632718697
 S         -2.5852698701        0.0912187390       -0.4001583403
 O         -1.7004842798       -1.0355576907       -0.2659981903
 O         -2.4702709704        0.8865576490       -1.6016327403
 C         -4.2722952299       -0.4479229715       -0.1870134202
 C         -5.2898900402        0.2429857381       -0.8172975202
 C         -6.6000942600       -0.1637183423       -0.6193731901
 C         -6.8696100797       -1.2470260823        0.2034521399
 C         -5.8378774594       -1.9318891620        0.8281598799
 C         -4.5257458496       -1.5307607916        0.6332107498
 H         -3.6903342894       -2.0364953813        1.0888663898
 H         -6.0501632692       -2.7758698420        1.4644291199
 H         -7.8898608096       -1.5617851226        0.3559756900
 H         -7.4037097202        0.3641592475       -1.1069943301
 H         -5.0316184305        1.0722427582       -1.4561978102
 H         -3.3126722205        1.4899515988        1.2256371497
 H         -2.4358660710        3.3853558591        2.2567589196
 H         -0.5027509715        4.8961424898        2.5103690295
 H          1.6554825286        4.3311613704        1.4695600294
 C          2.2738351992        2.2018123105       -0.0666736606
 H          3.0602822791        2.7033908008        0.5158802894
 C          2.2735927590        2.7885992505       -1.4666838806
 C          2.6428787785        4.2262907106       -1.6671254306
 C          3.5765442189        3.1428694509       -2.1150329806
 H          3.6917011489        2.9557361009       -3.1719040206
 H          4.4773333289        2.9767778212       -1.5416460907
 H          2.1121911683        4.7909817104       -2.4181801306
 H          2.9219725284        4.8021850407       -0.7980757207
 H          1.4995936691        2.3728351602       -2.0995691205
 O          1.4614865198        0.0652156502       -1.9970467004
