  62
        -98.94198438
 C         -1.2257477717       -0.8860233886        0.3742447112
 C         -2.0423443244       -0.6780156956       -0.7605475120
 C         -3.0143478649        0.4265272111       -0.6701328156
 C         -3.0344786442        1.1938920013        0.4333148428
 C         -3.9731307616        2.3275464857        0.7412756098
 C         -5.1843001369        1.8264421543        1.5464818148
 C         -6.3493816506        1.3098097659        0.7031231320
 H         -7.0755344423        0.8680584681        1.3893052386
 H         -6.8359831385        2.1538478188        0.2098968883
 C         -5.9802292208        0.2700573818       -0.3582735999
 H         -5.2761046277       -0.4506490884        0.0612290620
 H         -6.8877608555       -0.2777486024       -0.6191087911
 C         -5.3927912221        0.8914887024       -1.6342410680
 H         -5.5691737909        1.9669996525       -1.6199095667
 H         -5.9257664917        0.5022882720       -2.5041710884
 C         -3.8995020184        0.6178613176       -1.8714050597
 H         -3.7845380388       -0.3053850325       -2.4482250204
 H         -3.4808100681        1.4221989443       -2.4861086775
 H         -4.8359049715        1.0368796742        2.2172564463
 H         -5.5534406135        2.6442148821        2.1687404711
 H         -3.4128643152        3.0366593016        1.3547584560
 H         -4.2848926590        2.8274840070       -0.1710836068
 O         -2.1932048510        0.9906933231        1.4842969283
 C         -1.2674176757       -0.0352387619        1.4777310338
 O         -0.5461360230       -0.0881562271        2.4959006533
 H          0.8234426217        0.3524218111       -0.3420964808
 C          1.2781199032       -0.4537961694       -0.8965417273
 C          0.8457450437       -1.7561239150       -0.6899944773
 C          1.4238014262       -2.7716529256       -1.4415041489
 C          2.3992859134       -2.4774821212       -2.3788107367
 C          2.8374611878       -1.1793463756       -2.5693743753
 C          2.2680872989       -0.1572657605       -1.8185300273
 N          2.6786886803        1.1762799491       -1.9678703458
 S          2.7465208727        2.1687897019       -0.6229511479
 O          1.4208363275        2.5689656515       -0.2212574597
 O          3.6328122271        3.2420333513       -1.0217697540
 C          3.5361053870        1.1755769584        0.6314834143
 C          4.8814558562        0.9062810681        0.4614903681
 C          5.5283018374        0.0963926233        1.3792912044
 C          4.8203691258       -0.4356118135        2.4468698934
 C          3.4736914504       -0.1517498720        2.6068138792
 C          2.8204722792        0.6618025652        1.6930940944
 H          1.7711734628        0.8889914064        1.8029775559
 H          2.9138993561       -0.5591088650        3.4338437425
 H          5.3199564727       -1.0720949785        3.1600202963
 H          6.5775408621       -0.1199865630        1.2596285383
 H          5.3982219752        1.3488700866       -0.3745994632
 H          3.4698166556        1.3142065752       -2.5792416862
 H          3.6029275628       -0.9547742412       -3.2959455718
 H          2.8328658042       -3.2739588057       -2.9640514882
 H          1.1054564278       -3.7912392747       -1.2989295658
 C         -0.1945251750       -1.9986026959        0.3781482721
 H          0.3147011952       -1.9327851302        1.3520154653
 C         -0.8656899611       -3.3523308360        0.2708659344
 C         -0.2604278387       -4.5514041294        0.9351424804
 C         -1.5086059558       -3.9371973022        1.4915011065
 H         -2.4426009502       -4.4669856308        1.3794501750
 H         -1.4369660172       -3.3699611865        2.4085727687
 H          0.6588938960       -4.4099986133        1.4830204467
 H         -0.3399533883       -5.5085545646        0.4421261173
 H         -1.3731130709       -3.4899616433       -0.6766679028
 O         -1.9724782945       -1.3831653473       -1.8018026879
