  62
        -98.93228896
 C          1.7411141593        0.1360566506        0.2259127297
 C          2.8648234773        0.9932507820        0.1538857558
 C          4.1013390509        0.4007321338       -0.3986340375
 C          4.0896594393       -0.8704902634       -0.8319569752
 C          5.2426406191       -1.6639784477       -1.3816203106
 C          5.9230587826       -2.4755514068       -0.2663471376
 C          7.0119432290       -1.7274485762        0.5019473365
 H          7.8848899945       -1.6034413506       -0.1424030244
 H          7.3115335136       -2.3605211183        1.3404081211
 C          6.6059333136       -0.3541641107        1.0435198662
 H          7.2920924464       -0.0977369402        1.8531519850
 H          5.6046488418       -0.4095795225        1.4745979144
 C          6.6571674689        0.7533158143       -0.0196044810
 H          7.1915010967        0.3819091660       -0.8939310077
 H          7.2387228656        1.5944564575        0.3635592934
 C          5.2938305589        1.3168855168       -0.4484946154
 H          5.3792052392        1.7247207841       -1.4613014610
 H          5.0254098545        2.1551902385        0.2022554165
 H          6.3724896405       -3.3682026575       -0.7061365135
 H          5.1458123969       -2.8086218323        0.4262579272
 H          4.8215237507       -2.3597315811       -2.1103307210
 H          5.9526650980       -1.0152912537       -1.8858095682
 O          2.9764109309       -1.6524988552       -0.7722616299
 C          1.7929312356       -1.1801760678       -0.2411440045
 O          0.8655905630       -2.0146541355       -0.2321270081
 H         -2.1688765346       -0.0145097001        0.2555281640
 C         -1.7971153374        0.7667972956       -0.3884563106
 C         -0.4787209974        1.1794548120       -0.2699940101
 C         -0.0053034873        2.1669116048       -1.1278171380
 C         -0.8433146165        2.7292072966       -2.0734642063
 C         -2.1668236714        2.3355708127       -2.1684597391
 C         -2.6484977739        1.3478240871       -1.3176014571
 N         -3.9787591973        0.9168006523       -1.3911947918
 S         -4.8030654688        0.4855474961        0.0000551092
 O         -6.1997669926        0.6282201113       -0.3494386545
 O         -4.3502534282        1.2461623912        1.1405888425
 C         -4.4317687151       -1.2417264376        0.2128391972
 C         -3.9174800224       -1.6922804515        1.4121118141
 C         -3.6414858114       -3.0424796228        1.5583290425
 C         -3.8859398992       -3.9138410532        0.5085298185
 C         -4.4075428346       -3.4462077452       -0.6882377082
 C         -4.6847107432       -2.0975807685       -0.8406934973
 H         -5.0920905889       -1.6971463019       -1.7539986805
 H         -4.5948764933       -4.1283219008       -1.5018636778
 H         -3.6663718821       -4.9634429050        0.6244464645
 H         -3.2330092805       -3.4072692081        2.4871750934
 H         -3.7364199370       -0.9804812217        2.2027517537
 H         -4.5597723552        1.4209812937       -2.0444824532
 H         -2.8223906692        2.7871192397       -2.8975380497
 H         -0.4657180786        3.4941872436       -2.7353289384
 H          1.0190362700        2.4952525407       -1.0383925965
 C          0.3965015721        0.5619801945        0.7895914761
 H         -0.0897833222       -0.3754545853        1.1048106076
 C          0.5083953992        1.4411328730        2.0282522435
 C          0.1883208871        2.9021345061        2.0427635225
 C         -0.7335460184        1.9311784650        2.7138705428
 H         -0.7684072453        1.9125080432        3.7930150527
 H         -1.6855370827        1.7344977786        2.2405737283
 H         -0.1388127551        3.3630519440        1.1242500703
 H          0.8071131255        3.5430981371        2.6520635156
 H          1.3232694152        1.1252524895        2.6722149138
 O          2.8640016127        2.1938030554        0.5281118990
