  62
        -98.94257934
 C          0.7480327816        1.3867038360        0.6593575283
 C          1.2456727655        1.0584100853       -0.6226271499
 C          2.1282586611       -0.1225947816       -0.7061542928
 C          2.4440368636       -0.7777638582        0.4263061518
 C          3.3662191480       -1.9577234621        0.5814549449
 C          4.8515985045       -1.5675277955        0.4777263512
 C          5.1820381531       -0.5469300662       -0.6089386780
 H          4.5704426076        0.3452843080       -0.4621712922
 H          6.2259726666       -0.2496185729       -0.4792269263
 C          5.0150931365       -1.0432343823       -2.0431246213
 H          5.6953298312       -1.8809979357       -2.2137572377
 H          5.3157348707       -0.2297493242       -2.7082665457
 C          3.6043040990       -1.4842168988       -2.4359169132
 H          3.5942536607       -1.6246756417       -3.5211158131
 H          3.3649608594       -2.4511719368       -2.0008274019
 C          2.5021228518       -0.4755516717       -2.1238732614
 H          2.7347253099        0.4747604355       -2.6178473209
 H          1.5674103256       -0.8241741442       -2.5844886074
 H          5.1514360601       -1.1360766866        1.4355502662
 H          5.4368389646       -2.4744061466        0.3177072670
 H          3.1108233844       -2.7235822695       -0.1460626043
 H          3.1877682544       -2.3720314038        1.5760712160
 O          1.9743302727       -0.3961167141        1.6492505521
 C          1.0866788895        0.6529793893        1.7934207617
 O          0.6807788435        0.8333182795        2.9595826951
 O          0.9721925550        1.7228982119       -1.6567082747
 C         -0.2424713269        2.5253423838        0.8155488570
 C         -1.4303420493        2.2934122153       -0.0877283914
 C         -2.0678429497        3.3097257893       -0.7878113880
 C         -3.1401067473        3.0226717716       -1.6149233203
 C         -3.5877049883        1.7239974388       -1.7736165732
 C         -2.9647958379        0.7016857296       -1.0668598408
 C         -1.9158523416        0.9982632968       -0.2134920187
 H         -1.4385390124        0.2000118060        0.3362556962
 N         -3.3914420087       -0.6305168023       -1.1814934965
 S         -2.2570413321       -1.8618729392       -1.1764815973
 O         -1.0280706481       -1.4774255831       -1.8291161117
 O         -2.9566627542       -2.9873840097       -1.7627425158
 C         -1.9718297503       -2.2032461055        0.5462678972
 C         -0.6765524768       -2.3733687062        0.9917238758
 C         -0.4578845333       -2.6556551856        2.3303483281
 C         -1.5355784227       -2.7662970046        3.1948580126
 C         -2.8316574527       -2.6007393036        2.7302108729
 C         -3.0566243820       -2.3182235604        1.3925734788
 H         -4.0482887466       -2.1799127335        0.9953860013
 H         -3.6656153616       -2.6867248004        3.4080363675
 H         -1.3603109383       -2.9782400119        4.2377240894
 H          0.5509575642       -2.7705905907        2.6933043348
 H          0.1341716377       -2.2590644536        0.2876163808
 H         -4.1155362237       -0.7898841839       -1.8670546029
 H         -4.4063445597        1.4988307131       -2.4401455164
 H         -3.6234011767        3.8204748659       -2.1583455723
 H         -1.7183703560        4.3250641431       -0.6954580423
 H         -0.5891132967        2.4869310157        1.8591804745
 C          0.4389213114        3.8575024068        0.5768690462
 C         -0.0155211335        5.0846559519        1.3072915740
 C          1.2877462484        4.4385260446        1.6662630612
 H          2.2059642428        4.9372980140        1.3946204786
 H          1.3490070416        3.8847007921        2.5919278952
 H          0.0104234808        6.0320223847        0.7900627241
 H         -0.8376389219        4.9799786386        1.9989619807
 H          0.7890951079        3.9653857901       -0.4434811311
