  62
        -98.93928829
 C         -2.0074505496       -0.8991194926        0.0301415515
 C         -2.3262791281        0.0730341229        1.0030861302
 C         -2.4097652597        1.4682318577        0.5407445061
 C         -2.1708522678        1.7487970923       -0.7541400963
 C         -2.1150152677        3.0714096351       -1.4908319298
 C         -2.6956325639        4.3396224699       -0.8699911625
 C         -4.2144504180        4.3331467638       -0.7015960435
 H         -4.5017358594        5.2445800977       -0.1729951742
 H         -4.6741147365        4.3625953100       -1.6924946328
 C         -4.7891038900        3.1278427181        0.0381530972
 H         -5.8732481479        3.2564886644        0.0956766065
 H         -4.6022963270        2.2199638113       -0.5389667646
 C         -4.2694387569        2.9257532632        1.4603105228
 H         -4.8794589397        2.1469999088        1.9254384931
 H         -4.4032565892        3.8438703639        2.0353493108
 C         -2.7983575571        2.4865840216        1.5737418147
 H         -2.1228646108        3.3387399808        1.5412671565
 H         -2.6620702531        2.0021718399        2.5452874500
 H         -2.2080111734        4.5509085348        0.0771896335
 H         -2.4414039706        5.1597804532       -1.5470018233
 H         -1.0524880381        3.2404362527       -1.7012863394
 H         -2.5960726429        2.8928451336       -2.4579000282
 O         -1.8678490142        0.7731638157       -1.6601670603
 C         -1.7607291175       -0.5575770151       -1.2981220402
 O         -1.4653897435       -1.3244339634       -2.2353191476
 H          0.4001756682       -0.9671571143        0.8598996392
 C          0.6105373523       -1.9280000439        0.4114855868
 C         -0.4346641526       -2.7997402969        0.1321218269
 C         -0.1357512295       -4.0350110957       -0.4276321546
 C          1.1737810600       -4.3662558894       -0.7312244027
 C          2.2043740604       -3.4756439016       -0.4963370386
 C          1.9174703782       -2.2447388715        0.0844122542
 N          2.9413264637       -1.3210478190        0.3638953976
 S          2.5871193777        0.3254262629        0.2306663782
 O          1.9473770753        0.7633915422        1.4470175327
 O          1.8819209606        0.5976647089       -1.0019599004
 C          4.2411787998        0.9898539436        0.1595191341
 C          4.7950458416        1.3076882116       -1.0660309873
 C          6.0942453338        1.7893112897       -1.1101160753
 C          6.8145047413        1.9403757217        0.0652499880
 C          6.2448438076        1.6177374991        1.2881688669
 C          4.9460450374        1.1371688471        1.3393940692
 H          4.4569967464        0.8815035120        2.2648297682
 H          6.8066504178        1.7390235086        2.2001433864
 H          7.8253010856        2.3146064259        0.0279642937
 H          6.5378414273        2.0439856996       -2.0590993184
 H          4.1932132183        1.1801525283       -1.9517951584
 H          3.8063585072       -1.5468617175       -0.1091407512
 H          3.2210861206       -3.7262711712       -0.7581092365
 H          1.3918775237       -5.3259499738       -1.1747144613
 H         -0.9292455113       -4.7325995292       -0.6401780418
 C         -1.8385406466       -2.3466987393        0.4519866383
 H         -1.9636489016       -2.3511853379        1.5456807913
 C         -2.9120481088       -3.2169446323       -0.1673452644
 C         -3.3987267360       -4.4426326591        0.5451012598
 C         -4.2762385726       -3.2318577029        0.4524870415
 H         -5.1374044872       -3.2638537418       -0.1978292206
 H         -4.4210948824       -2.6328598492        1.3397941775
 H         -3.6619792597       -5.3095171583       -0.0419276419
 H         -2.9550558264       -4.6731197166        1.5018230771
 H         -2.8526540795       -3.2382284810       -1.2499143330
 O         -2.5242620375       -0.2107397724        2.2172427650
