  62
        -98.94967064
 C         -1.4992035835       -1.0726171455        0.0331505345
 C         -2.5124479293       -0.6405548227        0.9189826163
 C         -3.0305941116        0.7137606163        0.6902353232
 C         -2.5000381126        1.4637055295       -0.2934129136
 C         -2.9559991398        2.8468603751       -0.6560890500
 C         -4.0489099481        2.8109520297       -1.7335621000
 C         -5.1863569044        1.8372343234       -1.4253486821
 H         -5.9125892418        1.9180537637       -2.2368906304
 H         -4.7955962550        0.8173555115       -1.4420481815
 C         -5.8890816810        2.0872359852       -0.0837813336
 H         -5.6695115051        3.0961697594        0.2672336403
 H         -6.9685032959        2.0241583359       -0.2364665394
 C         -5.5359161706        1.0822385581        1.0141881966
 H         -5.6647100734        0.0653111122        0.6351836616
 H         -6.2417230640        1.2166250747        1.8381828437
 C         -4.1230727091        1.2012295378        1.6001889220
 H         -3.9355882191        2.2322193575        1.9085831251
 H         -4.0766230111        0.5654822360        2.4896297454
 H         -4.4509780960        3.8189929568       -1.8501682242
 H         -3.5911239653        2.5152944055       -2.6802657758
 H         -3.3259376935        3.3459090184        0.2376574446
 H         -2.0949810210        3.4002026959       -1.0355349556
 O         -1.5113442341        1.0237925092       -1.1104639398
 C         -0.9819309962       -0.2465902660       -0.9637618039
 O         -0.0750884787       -0.5239142327       -1.7731883936
 O         -2.9584289182       -1.3538434111        1.8601357864
 C         -0.8999353915       -2.4552932373        0.2088075929
 C          0.5950995681       -2.3604439590        0.3902248337
 C          1.4873212943       -3.2711477229       -0.1628294150
 C          2.8508915672       -3.1232300211        0.0248756931
 C          3.3546067423       -2.0557086927        0.7452150887
 C          2.4695704196       -1.1454146229        1.3102739380
 C          1.1047120047       -1.3190668437        1.1553374062
 H          0.4336334181       -0.6010374207        1.6042849303
 N          2.9256005052       -0.0201250536        2.0317855533
 S          2.6116977925        1.4743779414        1.3354093343
 O          3.2485385872        2.4368861730        2.2097916966
 O          1.1953812430        1.6365584368        1.1331890617
 C          3.4907760874        1.4173146576       -0.2161773052
 C          4.7668405902        1.9467545351       -0.2648769958
 C          5.4951459285        1.8394410966       -1.4379894589
 C          4.9414229956        1.1960873166       -2.5350272855
 C          3.6621669081        0.6670199944       -2.4675364850
 C          2.9238349710        0.7741195697       -1.2979740117
 H          1.9237296904        0.3734973803       -1.2304509626
 H          3.2233150575        0.1656787568       -3.3152874569
 H          5.5082934741        1.1071787001       -3.4483447120
 H          6.4891890891        2.2532516595       -1.4924167900
 H          5.1528562948        2.4402012911        0.6126380949
 H          3.9073377613       -0.0660469304        2.2713428219
 H          4.4189344869       -1.9234770539        0.8692436787
 H          3.5306441869       -3.8384346717       -0.4122334466
 H          1.1138489996       -4.0958821404       -0.7475943542
 H         -1.3381869424       -2.8500023756        1.1382589038
 C         -1.3066686293       -3.3543225257       -0.9417260280
 C         -1.5118202988       -4.8232938372       -0.7251591935
 C         -2.6910188621       -3.9277868605       -0.9535854978
 H         -3.2161242365       -3.9907033830       -1.8948849468
 H         -3.3285358732       -3.6934804902       -0.1133994423
 H         -1.2296365244       -5.5050137149       -1.5133026586
 H         -1.3569136010       -5.2089409992        0.2711359240
 H         -0.8925843549       -3.0265426594       -1.8889064201
