  62
        -98.94474879
 C         -1.6218001022       -1.4484409605       -0.2459532195
 C         -2.7543335165       -0.8925481264        0.3870242740
 C         -3.2450198756        0.3896596113       -0.1449626689
 C         -2.6031311879        0.9651292853       -1.1792139181
 C         -2.8745804429        2.2529684077       -1.9286499289
 C         -3.8243871075        3.3030269494       -1.3594795023
 C         -3.3252471451        3.9916456513       -0.0894978640
 H         -2.4698389869        4.6211550664       -0.3480231022
 H         -4.1200941957        4.6433676628        0.2810059165
 C         -2.8799271551        3.0630291756        1.0380634347
 H         -2.5511180637        3.6881007686        1.8738292322
 H         -2.0073958653        2.4854435041        0.7215351234
 C         -3.9553353557        2.1138199212        1.5644368997
 H         -3.5517918636        1.6260391840        2.4563086407
 H         -4.8349366422        2.6870030016        1.8655101560
 C         -4.3982479128        1.0069702872        0.5922316695
 H         -4.8515349505        0.2036675076        1.1808659470
 H         -5.1518750414        1.3686133027       -0.1031151093
 H         -4.8094488752        2.8747244698       -1.1990310755
 H         -3.9343903291        4.0725192017       -2.1286547717
 H         -1.8917125035        2.7099105072       -2.0840724281
 H         -3.2393724705        1.9539530278       -2.9178219418
 O         -1.5352659839        0.3698551617       -1.7834750720
 C         -0.9925814295       -0.8094802125       -1.3116644971
 O          0.0254208945       -1.1895594726       -1.9236550920
 H         -0.0806665305       -0.4941173816        1.4888448747
 C          0.7140019450       -1.2038588915        1.3103328702
 C          0.4309373354       -2.4279337651        0.7177688949
 C          1.4763691396       -3.3216004028        0.5203334169
 C          2.7698679150       -2.9808630347        0.8785077873
 C          3.0537962117       -1.7364825988        1.4111254483
 C          2.0125903611       -0.8406534502        1.6220383861
 N          2.2368193187        0.4622298542        2.1192886247
 S          1.9336172252        1.7063350846        1.0313763547
 O          2.2998991075        2.9186835385        1.7330443221
 O          0.5775478309        1.6299234686        0.5563325088
 C          3.1061201179        1.4074819953       -0.2797739312
 C          2.8163727114        0.4758575466       -1.2562310038
 C          3.7839098871        0.1904673062       -2.2086897402
 C          5.0124296286        0.8308372553       -2.1677539103
 C          5.2860291155        1.7649873462       -1.1795111709
 C          4.3275173502        2.0524389803       -0.2221035598
 H          4.4923864979        2.7720322466        0.5637860194
 H          6.2407731905        2.2649170927       -1.1503393887
 H          5.7594631074        0.6007028412       -2.9110154830
 H          3.5624965867       -0.5364172510       -2.9736694000
 H          1.8520074377       -0.0089151778       -1.2768729553
 H          3.1609151178        0.5925534235        2.5094731570
 H          4.0670228767       -1.4569909958        1.6581135299
 H          3.5710056074       -3.6859410506        0.7181640802
 H          1.2790116694       -4.2840243322        0.0770107521
 C         -0.9960929905       -2.7118681982        0.3148467330
 H         -1.5746764695       -2.9521034823        1.2197208567
 C         -1.1242242313       -3.8582001919       -0.6668929461
 C         -1.2566861486       -5.2682100267       -0.1756726439
 C         -2.4377689691       -4.5705580421       -0.7781514612
 H         -2.7775957362       -4.8760044751       -1.7563125813
 H         -3.2323267246       -4.2455185364       -0.1223666979
 H         -0.7874349380       -6.0580802738       -0.7425903813
 H         -1.2560969338       -5.4284237846        0.8919233144
 H         -0.5711977401       -3.6818376927       -1.5827119596
 O         -3.3318348966       -1.4418061009        1.3660890826
