  62
        -98.94099220
 C         -2.5600001408       -0.2489310988        0.5265034363
 C         -2.2736976757        0.3169467161       -0.7406803669
 C         -2.1289333103        1.7801816591       -0.7732036327
 C         -2.2662296685        2.4868501806        0.3618821844
 C         -2.1463960086        3.9794233193        0.4682876683
 C         -0.7197399130        4.4175863157        0.8229692147
 C          0.3657965545        3.7882976692       -0.0506328138
 H          1.3176099535        4.2320198869        0.2516142105
 H          0.4358198890        2.7195711456        0.1658272753
 C          0.1693765339        3.9854230791       -1.5600848902
 H         -0.5103480593        4.8191497638       -1.7425886321
 H          1.1326005571        4.2482460487       -2.0022078925
 C         -0.3350020624        2.7427762920       -2.2970886745
 H          0.2530600322        1.8752520291       -1.9849859033
 H         -0.1713236792        2.8893478943       -3.3682871512
 C         -1.8198752605        2.4099912171       -2.1015588017
 H         -2.4248198479        3.3059817149       -2.2578134695
 H         -2.0994449599        1.6687713077       -2.8560225998
 H         -0.6677343564        5.5055883456        0.7426523434
 H         -0.5205524626        4.1431783823        1.8617749241
 H         -2.4494990175        4.4265406796       -0.4767507642
 H         -2.8243041178        4.3191029668        1.2539489049
 O         -2.5208469934        1.9082678208        1.5649736444
 C         -2.6335359296        0.5325797748        1.6804223346
 O         -2.8057315892        0.1310349248        2.8510068647
 H         -0.1225783436       -1.0657825646        0.8185364825
 C         -0.2575313816       -1.9183199023        0.1674804873
 C         -1.5352807408       -2.4342816711       -0.0162536512
 C         -1.6898926234       -3.5410983638       -0.8386276469
 C         -0.5892778672       -4.1028542173       -1.4649370295
 C          0.6738127491       -3.5671627186       -1.3037910908
 C          0.8365966843       -2.4478233056       -0.4916608282
 N          2.0945794492       -1.8335530455       -0.3737181690
 S          2.3536994739       -0.5489798560        0.6710001527
 O          2.1993314557       -0.9663372785        2.0499984855
 O          1.5542909240        0.5702389836        0.2444304105
 C          4.0742645129       -0.2326560456        0.3303527537
 C          5.0412966977       -0.8457258826        1.1045216212
 C          6.3772887165       -0.6189375904        0.8135872102
 C          6.7219965755        0.2117706523       -0.2420203179
 C          5.7405800269        0.8222659588       -1.0087084747
 C          4.4029605752        0.5990564168       -0.7228878479
 H          3.6049174537        1.0565886761       -1.2845436159
 H          6.0117018951        1.4705700644       -1.8262211370
 H          7.7622047341        0.3872975291       -0.4663593719
 H          7.1422639845       -1.0890642490        1.4102402149
 H          4.7261266849       -1.4728705264        1.9229784421
 H          2.8806939779       -2.4620610049       -0.4455133189
 H          1.5251826427       -3.9950399009       -1.8097102563
 H         -0.7217742894       -4.9662604622       -2.0993538650
 H         -2.6703589048       -3.9557450816       -1.0055857385
 C         -2.6660464096       -1.7528694357        0.7174973103
 H         -2.5005060733       -1.9112112539        1.7976061535
 C         -4.0362050395       -2.3340170125        0.3991503375
 C         -5.2631242262       -1.4727764812        0.3973047397
 C         -4.7441096785       -2.0398838419       -0.8879768139
 H         -5.3042106752       -2.8348950347       -1.3581513694
 H         -4.2516197427       -1.3778371945       -1.5819994583
 H         -6.1729903116       -1.8794617461        0.8129561556
 H         -5.1330453522       -0.4159381709        0.5818151195
 H         -4.1581720005       -3.3329261622        0.8067567480
 O         -2.1567576183       -0.3525335306       -1.7996604523
