  62
        -98.93987280
 C         -1.4533076836       -1.6713818136       -0.2337737093
 C         -2.6569705990       -1.4311525386        0.4765704300
 C         -3.4886752269       -0.3188809290       -0.0044947004
 C         -3.0720917862        0.3973496003       -1.0643411052
 C         -3.7427082142        1.6295052029       -1.6014767279
 C         -3.4244289217        2.8333830043       -0.6910836692
 C         -4.6414369614        3.4183351613        0.0252906212
 H         -4.2732327046        4.1111128226        0.7848501997
 H         -5.2319511301        3.9961708174       -0.6888278736
 C         -5.5741361375        2.4011744262        0.6900453576
 H         -6.2224446962        2.9600091943        1.3683347369
 H         -6.2255734956        1.9530493108       -0.0618407252
 C         -4.8895915008        1.2772332046        1.4788840444
 H         -3.8988289974        1.5871069232        1.8117794334
 H         -5.4805860036        1.0857167198        2.3768632645
 C         -4.7784958469       -0.0611564095        0.7241946865
 H         -5.6164551277       -0.1582895312        0.0283054493
 H         -4.8577515871       -0.8764651388        1.4492799014
 H         -2.6864516648        2.5157327210        0.0484358726
 H         -2.9626437537        3.6253755283       -1.2827548315
 H         -3.3595815683        1.7995255704       -2.6079921613
 H         -4.8165351404        1.4676700423       -1.6622866579
 O         -1.9208868754        0.1264227480       -1.7299344397
 C         -1.0810904294       -0.9067556196       -1.3386611278
 O         -0.0673563308       -1.0256148027       -2.0528995177
 O         -3.0158771589       -2.1159782335        1.4708756870
 C         -0.5253286164       -2.7592922349        0.2850006594
 C          0.6876738741       -2.0560216967        0.8404024504
 C          0.6444709720       -1.5265461519        2.1275682971
 C          1.6922498406       -0.7685760023        2.6163854606
 C          2.7928232739       -0.4966317065        1.8216706511
 C          2.8375635943       -1.0114153485        0.5332177397
 C          1.8060178868       -1.8100262261        0.0593221536
 H          1.8564416383       -2.1961418404       -0.9459190947
 N          3.9185583576       -0.6835976938       -0.3060558628
 S          4.3390304796        0.9363278914       -0.3647282177
 O          4.8577486470        1.1535206208       -1.6976219035
 O          5.2565683845        1.2262315737        0.7108557840
 C          2.8335702540        1.8685147407       -0.1205789336
 C          2.8061465415        2.8500106366        0.8501351159
 C          1.6468694276        3.5865137017        1.0310134487
 C          0.5364307953        3.3291928066        0.2420479641
 C          0.5797916610        2.3410663618       -0.7288383348
 C          1.7372615664        1.6025274706       -0.9166100824
 H          1.7709213005        0.8219836786       -1.6606181922
 H         -0.2827022612        2.1264129072       -1.3403873450
 H         -0.3680417504        3.9005392937        0.3822869961
 H          1.6114794733        4.3553233251        1.7860259812
 H          3.6903839946        3.0124369005        1.4449411858
 H          3.8222269615       -1.0562985126       -1.2400538058
 H          3.6100842961        0.1116728297        2.1744747223
 H          1.6474437957       -0.3718303691        3.6190649751
 H         -0.2325574447       -1.7027847132        2.7342979078
 H         -1.0641948042       -3.2340193180        1.1151354513
 C         -0.2128442218       -3.8098017784       -0.7584992748
 C          0.4153254848       -5.1011079066       -0.3293346543
 C         -1.0123393276       -5.0765626847       -0.7835534872
 H         -1.2574197524       -5.5113476122       -1.7410419020
 H         -1.7877882425       -5.1933511997       -0.0408346451
 H          1.1527933811       -5.5562288767       -0.9727242137
 H          0.6102938292       -5.2327833472        0.7242097651
 H          0.0812103001       -3.3967599285       -1.7154604893
