  62
        -98.94464000
 C         -1.6915727389       -1.3925780472        0.2253258824
 C         -1.6467108151       -0.3331025827       -0.7136708123
 C         -2.9511775442        0.1784302196       -1.1624103967
 C         -4.0802026174       -0.3780513967       -0.6878606918
 C         -5.4699358041        0.0816061066       -1.0187010122
 C         -5.9631476692        1.1258653358       -0.0074528553
 C         -4.9670601434        2.2574192008        0.2473829843
 H         -5.4336576937        2.9492703540        0.9520698179
 H         -4.0794868296        1.8507056581        0.7381504399
 C         -4.5403227552        3.0231414152       -1.0128237566
 H         -5.2543006128        2.8406022711       -1.8168755560
 H         -4.5622361903        4.0933298873       -0.7963663945
 C         -3.1288320559        2.6992011802       -1.5067599377
 H         -2.4176009786        2.7939565371       -0.6813394370
 H         -2.8527775691        3.4440400186       -2.2583428182
 C         -2.9450833599        1.3160950287       -2.1441782814
 H         -3.7002984501        1.1641662716       -2.9181204272
 H         -1.9585563395        1.3002171122       -2.6167593800
 H         -6.1592002018        0.6229114079        0.9422804041
 H         -6.9037317710        1.5427475339       -0.3718528690
 H         -6.1348256266       -0.7831684772       -0.9878167540
 H         -5.4797200563        0.4999990215       -2.0231255339
 O         -4.0823470562       -1.4055671135        0.1989925689
 C         -2.8960225589       -1.9208932588        0.6930736245
 O         -3.0423432052       -2.8367717501        1.5276281976
 O         -0.5809765234        0.1597611403       -1.1659858043
 C         -0.4100244600       -1.9730151130        0.8020488998
 C          0.2519223570       -0.9148129397        1.6518911596
 C         -0.4035661844       -0.4703915217        2.7982588069
 C          0.1554835658        0.5093480497        3.5949382827
 C          1.3700465550        1.0816599996        3.2542499823
 C          2.0280367042        0.6516846297        2.1102337426
 C          1.4756329416       -0.3540436111        1.3276457524
 H          2.0072673093       -0.6887127223        0.4553142611
 N          3.2687208357        1.1976841364        1.7296093744
 S          3.3749203355        1.8834275009        0.1935751380
 O          4.5554432420        2.7210349010        0.2632166893
 O          2.1484871711        2.5562998037       -0.1641029902
 C          3.7083320342        0.5164434632       -0.8946118370
 C          4.9231322874       -0.1278338903       -0.7632216114
 C          5.2062761603       -1.1979246102       -1.5962677640
 C          4.2760185596       -1.5990372223       -2.5437740007
 C          3.0635787739       -0.9373349698       -2.6648303823
 C          2.7706134654        0.1329403533       -1.8331170031
 H          1.8231686055        0.6483457154       -1.8741882039
 H          2.3368809118       -1.2523383558       -3.3972839316
 H          4.4945710100       -2.4335971498       -3.1916113900
 H          6.1468913927       -1.7166486446       -1.5044346606
 H          5.6185493423        0.2223488186       -0.0187357557
 H          3.6558284013        1.8383858420        2.4091788607
 H          1.8022823681        1.8574759667        3.8687574111
 H         -0.3608964410        0.8394712132        4.4840463857
 H         -1.3595822452       -0.9077169681        3.0538251863
 H         -0.7227078154       -2.7912494350        1.4660297470
 C          0.4817689052       -2.5336075058       -0.2848038646
 C          1.5827439501       -3.4851935640        0.0723764336
 C          0.3701766481       -3.9801576634       -0.6559365420
 H          0.4670467113       -4.2532407353       -1.6957610017
 H         -0.3445209412       -4.5811877905       -0.1125199398
 H          2.5153850135       -3.4161523844       -0.4669839948
 H          1.6925397952       -3.7520510509        1.1125301576
 H          0.6629658721       -1.8284297877       -1.0861455420
