  62
        -98.93348997
 C         -2.3894935702       -0.9612993324        0.0370998298
 C         -3.6478928247       -0.8417100725        0.6807285896
 C         -4.6594086814       -0.0047235338        0.0154852094
 C         -4.3442713898        0.6171303523       -1.1330908575
 C         -5.2179351013        1.4844615446       -2.0045081206
 C         -6.1279185938        2.5033151236       -1.3053840806
 C         -5.5561153268        3.1039661044       -0.0129072338
 H         -4.4993586416        2.8485994129        0.0833761357
 H         -5.6242289511        4.1920830829       -0.0669413751
 C         -6.3075274369        2.6486341293        1.2404175954
 H         -6.1129393297        3.3619412469        2.0449409767
 H         -7.3798440363        2.6735758442        1.0343578105
 C         -5.9314358562        1.2631891103        1.7643128054
 H         -6.6133225180        1.0159325052        2.5815339758
 H         -4.9229953180        1.2876196219        2.1860953751
 C         -5.9747920398        0.1285094344        0.7277589405
 H         -6.1243204863       -0.8115261809        1.2659195564
 H         -6.7978622187        0.2631689896        0.0300994943
 H         -6.3177194349        3.3014751806       -2.0250792539
 H         -7.0907123507        2.0432907385       -1.0872644344
 H         -4.5250410076        2.0073653693       -2.6681838640
 H         -5.8300122850        0.8287178070       -2.6308039456
 O         -3.1129486146        0.5013962723       -1.7024221763
 C         -2.1047381008       -0.2738061241       -1.1430264541
 O         -1.0446190104       -0.2535969639       -1.7942065225
 H          0.9672924691       -2.0385514034       -0.7517583612
 C          1.0382131323       -1.2869138816        0.0191978350
 C         -0.0463865567       -1.0505193727        0.8483736462
 C          0.0606953743       -0.0578677608        1.8180549702
 C          1.2219454088        0.6797428804        1.9490731520
 C          2.2981733793        0.4494126787        1.1101867842
 C          2.2007012896       -0.5358811273        0.1373997570
 N          3.2772747857       -0.7546551908       -0.7357485017
 S          4.8253620760       -0.8915856586       -0.1159896358
 O          5.5628836462       -1.6536015173       -1.1002640412
 O          4.8131646923       -1.4236095117        1.2274332926
 C          5.4355583299        0.7811952283       -0.1034398163
 C          5.3745133596        1.5052164129       -1.2779319284
 C          5.8556635853        2.8045987189       -1.2885814285
 C          6.3894022776        3.3540745407       -0.1322557707
 C          6.4461680682        2.6132185074        1.0381832501
 C          5.9657670343        1.3129330271        1.0556178890
 H          5.9840190883        0.7015551024        1.9438179217
 H          6.8610899640        3.0424191927        1.9360298267
 H          6.7628117154        4.3659240674       -0.1438340967
 H          5.8120612027        3.3840088336       -2.1967947065
 H          4.9533128296        1.0426664159       -2.1550733246
 H          3.0949093462       -1.4409850587       -1.4524577772
 H          3.2049721509        1.0248768027        1.2012052427
 H          1.2900396158        1.4449561335        2.7074488402
 H         -0.7834975179        0.1309596111        2.4672390527
 C         -1.3375753450       -1.8168634293        0.7215779397
 H         -1.7378416817       -1.9756631510        1.7364095062
 C         -1.1512303842       -3.1997097991        0.1150065993
 C         -2.3274400170       -3.9637271926       -0.4131961966
 C         -1.2671008663       -3.4772240847       -1.3527109322
 H         -0.5965784127       -4.2052185734       -1.7868422164
 H         -1.4956661640       -2.6517579431       -2.0081336623
 H         -2.3908187215       -5.0216950790       -0.2080064210
 H         -3.2832031157       -3.4602390056       -0.4189570685
 H         -0.4065626489       -3.7753212400        0.6578336629
 O         -3.9201296015       -1.4189222492        1.7667961009
