  62
        -98.94398399
 C         -2.0142272346       -0.8463550620        0.1342345760
 C         -1.6387690749       -1.8371712797       -0.8019366934
 C         -0.6226402993       -2.8105005176       -0.3621684884
 C         -0.1301789889       -2.7186393804        0.8852315634
 C          0.9547391659       -3.5470572223        1.5163300572
 C          2.3286481908       -2.8837414556        1.3170615691
 C          3.0541966634       -3.2772381280        0.0318662211
 H          3.9526966015       -2.6591591653       -0.0357683421
 H          3.3745029343       -4.3192965230        0.1037240628
 C          2.2489671566       -3.1032992556       -1.2582670932
 H          1.7378127385       -2.1377570366       -1.2553003905
 H          2.9567439829       -3.0755250731       -2.0900229194
 C          1.2439282164       -4.2394909184       -1.5013087423
 H          1.4610278749       -5.0621182833       -0.8199077283
 H          1.3802070151       -4.6304891833       -2.5121750883
 C         -0.2330065135       -3.8433682624       -1.3839055555
 H         -0.5696944517       -3.4274888410       -2.3392282111
 H         -0.8307673054       -4.7455751431       -1.2104449298
 H          2.9705917647       -3.1467196147        2.1602739178
 H          2.1893891233       -1.7996267243        1.3356502702
 H          0.9459927989       -4.5606299838        1.1272556147
 H          0.7354016139       -3.5794892028        2.5855140348
 O         -0.5448935133       -1.7680946567        1.7673505163
 C         -1.4662193127       -0.7953618456        1.4147646323
 O         -1.7052087929        0.0324717799        2.3138648801
 O         -2.1277553146       -1.9008501714       -1.9633349663
 C         -2.9765154944        0.2490106049       -0.2925224790
 C         -2.2366298602        1.5655186703       -0.2770698189
 C         -2.6654148657        2.6901910023        0.4146497880
 C         -1.8983837635        3.8429692643        0.4149429389
 C         -0.6909046040        3.8941247304       -0.2567182997
 C         -0.2576703875        2.7774965947       -0.9643158941
 C         -1.0418868528        1.6354064826       -0.9849280905
 H         -0.7042314157        0.7745688936       -1.5441764191
 N          0.9590747218        2.7993615196       -1.6708217990
 S          2.0698527089        1.5603615980       -1.5073006711
 O          3.2346214650        2.0232620917       -2.2291104398
 O          1.4957002882        0.3156300789       -1.9453188590
 C          2.4406649040        1.4880881650        0.2337089216
 C          3.5915633404        2.0807367613        0.7153430970
 C          3.8408154755        2.0475270701        2.0780146985
 C          2.9343328359        1.4385321465        2.9336583980
 C          1.7801873908        0.8536543161        2.4357186719
 C          1.5331514588        0.8747909263        1.0725350838
 H          0.6463960873        0.4237316335        0.6556197396
 H          1.0598013006        0.3822996307        3.0866034454
 H          3.1261180549        1.4168640163        3.9947726752
 H          4.7384004795        2.4982510153        2.4697827927
 H          4.2680339501        2.5414047236        0.0137298498
 H          1.4344159743        3.6903204110       -1.6434636056
 H         -0.0876327682        4.7890898125       -0.2396141534
 H         -2.2398722580        4.7099186890        0.9596487739
 H         -3.5938892974        2.6623709018        0.9603475886
 H         -3.2401165994        0.0167209841       -1.3350284728
 C         -4.2354990749        0.2371933579        0.5462341528
 C         -5.5113751782        0.7932011240       -0.0096960786
 C         -5.3515893277       -0.6864415282        0.1640949790
 H         -5.9052010099       -1.1783820708        0.9496653919
 H         -5.2123740177       -1.2951197446       -0.7176874873
 H         -6.1800288273        1.3166608773        0.6566999310
 H         -5.4876683635        1.1903452474       -1.0132885635
 H         -4.0356453275        0.3671591441        1.6034664282
