  62
        -98.94226904
 C         -2.1477315960       -1.0763095233        0.1005640895
 C         -1.5333681824       -0.2251012620       -0.8453453916
 C         -1.9986625651        1.1745213345       -0.8896157008
 C         -2.9680542186        1.5619816183       -0.0405034175
 C         -3.6146485604        2.9157893831        0.1044408552
 C         -2.7274742968        3.9358161941        0.8288333343
 C         -1.2970719834        4.0193371352        0.3046151965
 H         -0.7631405145        4.7526358115        0.9161656375
 H         -0.7965427009        3.0610473879        0.4561517731
 C         -1.1678875785        4.4459963101       -1.1566694470
 H         -1.6951665872        5.3916838225       -1.3024150561
 H         -0.1054842009        4.6252551205       -1.3406451658
 C         -1.6602358640        3.4374601624       -2.2002447524
 H         -1.2064852260        3.7125417403       -3.1565365859
 H         -2.7367259834        3.4984587116       -2.3407752318
 C         -1.2561643156        1.9952782307       -1.9147776338
 H         -0.2019118721        1.9692725533       -1.6135419478
 H         -1.3107300716        1.4188421412       -2.8455794773
 H         -2.6818200044        3.6619126324        1.8861524095
 H         -3.2033139815        4.9161010298        0.7542002633
 H         -3.9129151216        3.2960176673       -0.8681901303
 H         -4.5212414984        2.7630172201        0.6951738309
 O         -3.5203070421        0.7061516222        0.8707804077
 C         -3.1122853157       -0.6070933178        0.9873666528
 O         -3.6744318899       -1.2483490684        1.9016365612
 O         -0.6325341536       -0.6155315733       -1.6339760711
 C         -1.6970806206       -2.5223399516        0.2234944120
 C         -0.2001552228       -2.5513357379        0.4083409226
 C          0.6530505182       -3.3861507348       -0.3015975263
 C          2.0256820992       -3.2856703181       -0.1489933603
 C          2.5757458736       -2.3371762481        0.6942659924
 C          1.7284437579       -1.5194923109        1.4289965981
 C          0.3571207589       -1.6512118562        1.3087263156
 H         -0.2932845153       -0.9963755517        1.8770183467
 N          2.2966523317       -0.4763329755        2.2210024276
 S          2.2143519278        0.9859531431        1.3702991435
 O          2.8635594440        1.9668746508        2.2155619884
 O          0.8531825869        1.3043256826        0.9966566756
 C          3.2120225680        0.6431435547       -0.0580992675
 C          2.6196300473        0.1526847457       -1.2049673716
 C          3.4293924289       -0.1587568481       -2.2869300945
 C          4.8014910765        0.0198945844       -2.2027251246
 C          5.3785544206        0.5123987005       -1.0413882300
 C          4.5777919300        0.8250257133        0.0447131487
 H          4.9760169806        1.2118142443        0.9683586581
 H          6.4460452637        0.6498391064       -0.9787235677
 H          5.4244174149       -0.2274601696       -3.0479015220
 H          2.9767123836       -0.5456779471       -3.1856653654
 H          1.5491388347        0.0129468511       -1.2426843862
 H          1.8054525815       -0.3443049043        3.0962277070
 H          3.6425851676       -2.2162404665        0.7884484191
 H          2.6746253156       -3.9352138222       -0.7155289691
 H          0.2416322750       -4.1033871650       -0.9929219315
 H         -2.1753416599       -2.9165603263        1.1322653483
 C         -2.1730559744       -3.3233139391       -0.9705678679
 C         -2.4534248681       -4.7892792165       -0.8356945541
 C         -3.5860655699       -3.8205119743       -0.9904410639
 H         -4.1268675175       -3.8001151696       -1.9245963371
 H         -4.1988391882       -3.6014269786       -0.1278290637
 H         -2.2207491029       -5.4378075397       -1.6666508978
 H         -2.3035129458       -5.2403163828        0.1335162287
 H         -1.7565475467       -2.9618872375       -1.9037580600
