  62
        -98.93781084
 C         -1.3854236118       -1.5036217151        0.0524838314
 C         -2.5337150484       -1.0710571185        0.7559317472
 C         -3.2074761779        0.1423571231        0.2600293951
 C         -2.6652631928        0.8108548676       -0.7733935720
 C         -3.1592027061        2.0628722228       -1.4533398352
 C         -3.6367291400        3.1992218710       -0.5363455334
 C         -5.1505086616        3.4175965378       -0.5749542320
 H         -5.3616639854        4.4459016161       -0.2733590700
 H         -5.4904430854        3.3036485500       -1.6063980728
 C         -5.9651580000        2.4947920070        0.3297172061
 H         -5.8077269298        2.7806367018        1.3720164899
 H         -7.0214033779        2.6585609980        0.1034682980
 C         -5.6584317997        1.0025736797        0.1883599368
 H         -5.5174514011        0.7387430071       -0.8591565012
 H         -6.5296470217        0.4479025874        0.5430703601
 C         -4.4467765034        0.5431188993        1.0131908522
 H         -4.1776235049        1.3120570880        1.7439341636
 H         -4.7140438787       -0.3430075657        1.5978836157
 H         -3.3008184902        3.0159165838        0.4836616192
 H         -3.1543740320        4.1198067647       -0.8695907241
 H         -2.3164533413        2.4058171216       -2.0579187988
 H         -3.9555896400        1.7895211407       -2.1504657910
 O         -1.5301401403        0.3849141577       -1.3933631781
 C         -0.8547601009       -0.7555248943       -0.9973013670
 O          0.1764008858       -0.9855253503       -1.6576761341
 O         -2.9845733784       -1.6785861060        1.7660753193
 C         -0.6633850310       -2.7406150030        0.5564130692
 C          0.8135517868       -2.4550688696        0.6686983624
 C          1.8070566098       -3.2604953171        0.1277895072
 C          3.1412998704       -2.9139474281        0.2589792786
 C          3.5110009561       -1.7495890132        0.9058422203
 C          2.5232018569       -0.9367318700        1.4498657471
 C          1.1935351875       -1.3076539443        1.3553297700
 H          0.4384704000       -0.6627469308        1.7823110433
 N          2.8359332073        0.2850523614        2.0869798127
 S          2.3344934182        1.6733041514        1.2879334538
 O          2.7846083605        2.7712569541        2.1178073852
 O          0.9192218848        1.6070635939        1.0309583918
 C          3.2756265654        1.6606257673       -0.2279886278
 C          4.4400086576        2.4036913368       -0.2837861486
 C          5.2236222359        2.3412193715       -1.4241328123
 C          4.8372624565        1.5295855437       -2.4805641558
 C          3.6688650290        0.7877073648       -2.4060465968
 C          2.8750051801        0.8485225145       -1.2699181970
 H          1.9587190330        0.2823066428       -1.1974809347
 H          3.3608847000        0.1543805714       -3.2224849859
 H          5.4487169219        1.4748492881       -3.3674433676
 H          6.1313545619        2.9198389233       -1.4840627954
 H          4.6975769300        3.0200086104        0.5624982820
 H          3.8166211712        0.3803450143        2.3164082876
 H          4.5495097263       -1.4647459383        0.9841108736
 H          3.9016193159       -3.5495250395       -0.1683806725
 H          1.5386347645       -4.1513304252       -0.4156567281
 H         -1.0566035945       -2.8875559943        1.5770156561
 C         -0.9806224504       -4.0111072083       -0.2185332580
 C         -2.2452506522       -4.1387355781       -1.0126145942
 C         -0.9245766589       -4.0638783946       -1.7150355046
 H         -0.5437429000       -4.9597120072       -2.1831894756
 H         -0.6685751095       -3.1538032436       -2.2340953002
 H         -2.7682947427       -5.0831316663       -0.9931965445
 H         -2.8981158387       -3.2788959308       -1.0567477908
 H         -0.6615580155       -4.9019590993        0.3135403204
