  62
        -98.94092929
 C         -2.2846761759       -0.5248884420        0.1507779958
 C         -3.5563368491       -1.0520730119        0.4801370782
 C         -4.6442652008       -0.0737007831        0.6068445774
 C         -4.3756884424        1.2332672798        0.4318340253
 C         -5.3974532823        2.3314616755        0.4825486184
 C         -5.9833782185        2.6100659411       -0.9087297731
 C         -6.4481853673        1.3540893169       -1.6459403535
 H         -6.8706372989        1.6752887246       -2.6005100064
 H         -5.5789817078        0.7323110780       -1.8727319290
 C         -7.4849129757        0.5173838267       -0.8832957527
 H         -8.2787946100        0.2287101334       -1.5752871550
 H         -7.9426764313        1.1205466422       -0.0984934769
 C         -6.9341523044       -0.7733415558       -0.2742750356
 H         -6.3918524855       -1.3362799568       -1.0381119248
 H         -7.7807448042       -1.3867482969        0.0451759087
 C         -6.0128656686       -0.5984115809        0.9395936868
 H         -6.4991481377        0.0367723218        1.6825877671
 H         -5.8545910057       -1.5864573002        1.3815520987
 H         -6.8212934405        3.3007465986       -0.7981298654
 H         -5.2171230748        3.0990458160       -1.5148470165
 H         -6.1906141632        2.0508529974        1.1727664725
 H         -4.9105538133        3.2363717651        0.8499034634
 O         -3.1355999822        1.7044963827        0.1400513020
 C         -2.0609211262        0.8411980443       -0.0174270132
 O         -0.9854501151        1.4063181887       -0.2960707309
 H          1.5619770040       -0.9856431796       -0.5225149125
 C          1.2968945787       -0.8912993163        0.5161604265
 C         -0.0064798878       -1.1058754528        0.9345661719
 C         -0.3043420745       -0.9770372159        2.2893245574
 C          0.6737108705       -0.6195974174        3.1957117382
 C          1.9680013241       -0.3776600110        2.7693743246
 C          2.2800716358       -0.5167928603        1.4227124608
 N          3.6045196864       -0.3261810294        0.9815714164
 S          3.9160030199        0.5348568119       -0.4377408841
 O          3.4415456592        1.8963530202       -0.3181979940
 O          3.4423625631       -0.2194649829       -1.5692440680
 C          5.6997663724        0.5061940867       -0.4105134177
 C          6.3389111518       -0.6780037158       -0.7258874153
 C          7.7231815824       -0.7231884297       -0.6870442700
 C          8.4419423321        0.4102327438       -0.3361607282
 C          7.7869552107        1.5919283534       -0.0246645606
 C          6.4019777128        1.6431085656       -0.0597585965
 H          5.8497753075        2.5407204484        0.1683824811
 H          8.3480587176        2.4723175127        0.2444962171
 H          9.5194770208        0.3727643951       -0.3078267707
 H          8.2361939103       -1.6394904214       -0.9308296921
 H          5.7391780955       -1.5298518581       -1.0004573531
 H          4.1923990766        0.0410285298        1.7195877015
 H          2.7305087565       -0.0848779444        3.4755953269
 H          0.4266916763       -0.5181544474        4.2419759482
 H         -1.3197724510       -1.1526527257        2.6186561235
 C         -1.1162046140       -1.4791646614       -0.0162247918
 H         -1.5018997272       -2.4678290701        0.2751194090
 C         -0.6836507447       -1.5350383208       -1.4657917517
 C         -0.0279380038       -2.7680000053       -2.0091793453
 C         -1.4284335203       -2.4229954971       -2.4152944333
 H         -1.6043985512       -2.0699980633       -3.4204351217
 H         -2.2386498114       -3.0112431160       -2.0095336034
 H          0.1132765102       -3.5964004406       -1.3315692545
 H          0.7646674631       -2.6490988933       -2.7325933722
 H         -0.3482751456       -0.5728684856       -1.8396902137
 O         -3.7687921311       -2.2805510002        0.6652732465
