  62
        -98.94507102
 C          1.4528266655        1.5374412960       -0.3581137078
 C          2.6875486539        1.4251988891        0.3330047322
 C          3.5975261002        0.3752224618       -0.1348084926
 C          3.2479661979       -0.3901057197       -1.1843727863
 C          4.0701005379       -1.4961702227       -1.7884387926
 C          3.9218395370       -2.8467999259       -1.0742601270
 C          4.5906998914       -2.9353450905        0.2978855949
 H          4.5924751204       -3.9885706126        0.5854084917
 H          5.6311332208       -2.6199858339        0.2140087109
 C          3.8917524678       -2.1240443038        1.3979926384
 H          2.8784973649       -1.8692872475        1.0784600319
 H          3.7982234885       -2.7359745251        2.2977606873
 C          4.6208131327       -0.8411462627        1.7981062006
 H          5.5857490662       -1.0912709202        2.2445787832
 H          4.0218383872       -0.3292600238        2.5554707593
 C          4.8579282369        0.1384159945        0.6407824465
 H          5.6445456107       -0.2350625961       -0.0144167480
 H          5.1764600707        1.0957284742        1.0603490081
 H          4.3654202675       -3.6070295089       -1.7213243659
 H          2.8584909554       -3.0762714878       -0.9751029802
 H          3.7270613949       -1.6115408752       -2.8190247449
 H          5.1206950804       -1.2048909831       -1.8036477469
 O          2.0741903379       -0.2244283885       -1.8477457299
 C          1.1388001465        0.7189398139       -1.4414377230
 O          0.1007184972        0.7181132548       -2.1312583685
 O          3.0114738519        2.1680114297        1.2969970649
 C          0.4485501430        2.5536262212        0.1638299139
 C         -0.5706973852        1.8157188113        1.0006464367
 C         -0.2276728318        1.4737281202        2.3073988752
 C         -1.1101596231        0.7831911375        3.1143193479
 C         -2.3530114773        0.4137176570        2.6307550027
 C         -2.7031398419        0.7405708529        1.3265919522
 C         -1.8148904987        1.4380562251        0.5164914022
 H         -2.1058505265        1.6668966355       -0.4956433498
 N         -3.9686587024        0.3801884454        0.8237727801
 S         -4.0473701214       -0.5121303625       -0.5925393350
 O         -3.7076795191        0.3166081912       -1.7178756216
 O         -5.3841301461       -1.0688165664       -0.5916435750
 C         -2.8539440937       -1.8132950199       -0.3454018631
 C         -1.5662140191       -1.6585227979       -0.8132660192
 C         -0.6312754518       -2.6417117376       -0.5270783341
 C         -0.9948606535       -3.7534596212        0.2156105060
 C         -2.2970343397       -3.8959358422        0.6724805333
 C         -3.2353832111       -2.9157492010        0.3957226383
 H         -4.2592424028       -2.9914419221        0.7250250446
 H         -2.5793644177       -4.7646108292        1.2452053926
 H         -0.2609163827       -4.5125751190        0.4365596626
 H          0.3780534273       -2.5208555747       -0.8905608505
 H         -1.3064797132       -0.7849905058       -1.3910198627
 H         -4.5700164268       -0.0409873088        1.5186143058
 H         -3.0501208003       -0.1208401826        3.2581381548
 H         -0.8309109201        0.5302733723        4.1257265096
 H          0.7474470019        1.7569590754        2.6776514730
 H          1.0251671918        3.1973786813        0.8432299124
 C         -0.1574871216        3.4226090324       -0.9150212676
 C         -0.8276164350        4.7035689600       -0.5201878009
 C          0.4863714672        4.7360432949       -1.2397751767
 H          0.5044932937        5.0590099686       -2.2699266922
 H          1.3675543304        5.0142048074       -0.6799325130
 H         -1.7162163030        5.0047530967       -1.0537343141
 H         -0.8369736419        4.9586224515        0.5289295801
 H         -0.5816960253        2.8658651735       -1.7408874396
