  62
        -98.94416882
 C          2.2492097974        0.8707063440        0.4123197985
 C          2.4408877726        0.0145471156       -0.6994104749
 C          3.2871668571       -1.1608598363       -0.4561510246
 C          3.7853407547       -1.3856949610        0.7732150832
 C          4.6429514489       -2.5527511608        1.1817922387
 C          6.1358152659       -2.3677926319        0.8766601560
 C          6.5148904898       -2.4617833361       -0.6018376247
 H          7.6033483825       -2.5331837660       -0.6487311315
 H          6.1100267154       -3.3831755215       -1.0215414501
 C          6.0619267911       -1.2645857348       -1.4492404570
 H          5.8152063767       -0.4265278326       -0.7932831927
 H          6.8857163536       -0.9386010657       -2.0881193021
 C          4.8672360247       -1.5482823946       -2.3599005953
 H          5.1459470893       -2.2925655408       -3.1090405713
 H          4.6078575937       -0.6243718607       -2.8827960918
 C          3.6153411796       -2.0422164962       -1.6232259157
 H          2.7707152031       -2.0021474028       -2.3154019938
 H          3.7527428519       -3.0728167223       -1.2966759079
 H          6.4564958580       -1.4022892413        1.2747380273
 H          6.6769883022       -3.1467037551        1.4187883493
 H          4.5236618344       -2.6629554456        2.2619329810
 H          4.2812593986       -3.4607092322        0.6982163912
 O          3.5372648999       -0.5614158381        1.8272736659
 C          2.7810728045        0.5897298491        1.6696400056
 O          2.6451249698        1.2624592476        2.7133282655
 H         -0.0970828840        0.1350877151        1.1743488843
 C         -0.6274455973        0.7084050223        0.4225551601
 C          0.0115609872        1.7850732409       -0.1798904273
 C         -0.6889435804        2.5219282721       -1.1259160397
 C         -1.9833435422        2.1718393664       -1.4699495124
 C         -2.6064812889        1.0864968338       -0.8827286914
 C         -1.9204605726        0.3503138560        0.0744660699
 N         -2.5425310017       -0.7614220718        0.6722386609
 S         -4.0478072714       -0.5258903119        1.3811829927
 O         -4.2027866193        0.8311210794        1.8524961149
 O         -4.1653352098       -1.5695653125        2.3764356688
 C         -5.1976709008       -0.8500886751        0.0613111186
 C         -6.1368020974        0.1017305270       -0.2843618571
 C         -7.0268185444       -0.1774163416       -1.3100182411
 C         -6.9625762951       -1.3966601069       -1.9669556291
 C         -6.0148343177       -2.3428612550       -1.6056274940
 C         -5.1229761887       -2.0707129452       -0.5806562482
 H         -4.3738108701       -2.7786259416       -0.2672294863
 H         -5.9675290945       -3.2897917145       -2.1189095594
 H         -7.6550511387       -1.6112768595       -2.7655212748
 H         -7.7645380683        0.5564381813       -1.5922050317
 H         -6.1446166210        1.0378492906        0.2507378544
 H         -1.9372829630       -1.2720186244        1.2989359257
 H         -3.6107708261        0.8054324572       -1.1545637970
 H         -2.5128511886        2.7508687598       -2.2109495244
 H         -0.2202334487        3.3704265077       -1.5965957990
 C          1.4153214574        2.1286932698        0.2591494423
 H          1.3527303171        2.5772528587        1.2623191388
 C          2.1137924800        3.1029432860       -0.6676754505
 C          1.9609648210        4.5803849641       -0.4713758976
 C          3.2578560660        3.9098285489       -0.1341918161
 H          4.1114269390        4.0814165437       -0.7726749969
 H          3.5122091710        3.7782519844        0.9079617382
 H          1.3384728737        4.9154620904        0.3446785258
 H          1.9274234322        5.2162256285       -1.3432194590
 H          2.1973309189        2.7240736906       -1.6797416378
 O          1.9318350736        0.2162225384       -1.8314122722
