  62
        -98.93672612
 C          1.8821150997        0.8782502198        0.6982291107
 C          2.2838646001        0.3999405509       -0.5713879896
 C          3.7331263401        0.4056891212       -0.8359165592
 C          4.5752709299        0.8776454305        0.0991582214
 C          6.0757651399        1.0081104206        0.0226885019
 C          6.8589670801       -0.1850012088       -0.5454594290
 C          6.2275068401       -1.5617087091       -0.2915581204
 H          6.9858944000       -2.2270750794        0.1255949592
 H          5.4277746599       -1.4780312298        0.4463843895
 C          5.6822889504       -2.2134237180       -1.5649909511
 H          5.5973354805       -3.2901132182       -1.3989121821
 H          6.4051040306       -2.0637111772       -2.3700608108
 C          4.3115773205       -1.7178052977       -2.0252295110
 H          4.1018693408       -2.1669186668       -2.9989727014
 H          3.5379335904       -2.0711904583       -1.3377751815
 C          4.1645651805       -0.1920612376       -2.1437975997
 H          5.0786438905        0.2650660428       -2.5148524490
 H          3.3568802506        0.0131105530       -2.8513354897
 H          7.8527225400       -0.1531498992       -0.0956561287
 H          6.9961015803       -0.0526513979       -1.6178353389
 H          6.3111569700        1.9016730211       -0.5623510973
 H          6.3963745296        1.2016007697        1.0490559821
 O          4.1392594396        1.3556002694        1.2997812917
 C          2.7962859695        1.3541924490        1.6352939014
 O          2.5489317592        1.7914696980        2.7782495217
 H         -2.0885550001        0.1210715800        0.2152150091
 C         -1.4717488501       -0.7137406202        0.5043276685
 C         -0.1769323903       -0.5041762506        0.9544256690
 C          0.5798241797       -1.6085646809        1.3370956882
 C          0.0659261698       -2.8868054008        1.2423419869
 C         -1.2257170901       -3.0911044505        0.7902738165
 C         -1.9989277900       -1.9960601502        0.4281828372
 N         -3.3135084499       -2.1664484199       -0.0316603232
 S         -4.5169318201       -1.1405409604        0.5171397074
 O         -4.2476570805       -0.6726298116        1.8565991779
 O         -5.7439047100       -1.8890244803        0.3409364964
 C         -4.5183075699        0.2243482306       -0.6253859314
 C         -4.7719557101        1.4946424601       -0.1477842703
 C         -4.8298844399        2.5502716209       -1.0447252394
 C         -4.6332302796        2.3176986422       -2.3970443295
 C         -4.3800820994        1.0353670326       -2.8605065506
 C         -4.3262648596       -0.0248407882       -1.9699314716
 H         -4.1312401794       -1.0326043279       -2.2961886124
 H         -4.2247699892        0.8588598335       -3.9127104607
 H         -4.6762819295        3.1406286328       -3.0930564488
 H         -5.0264514001        3.5478852806       -0.6848332985
 H         -4.9064581704        1.6329526792        0.9131553498
 H         -3.6299941999       -3.1248165799       -0.0623739341
 H         -1.6314876500       -4.0890371505        0.7197647555
 H          0.6723464298       -3.7323623010        1.5311612763
 H          1.5855152296       -1.4518195711        1.7038228086
 C          0.4125521096        0.8810908694        1.0721089904
 H          0.3663527294        1.1778751584        2.1311245506
 C         -0.3246913502        1.9156370200        0.2452203811
 C         -1.4919561304        2.6599283795        0.8179014515
 C         -0.1840710704        3.3615103297        0.6120295725
 H         -0.1080730202        4.0904662304       -0.1804971369
 H          0.4174056194        3.5940274190        1.4791181628
 H         -2.3130725403        2.9079360900        0.1623521915
 H         -1.7905985306        2.4232671886        1.8284543412
 H         -0.3441231700        1.6644376910       -0.8091578091
 O          1.4758553703       -0.0097229383       -1.4438092701
