  62
        -98.94596864
 C         -1.5896084235       -1.2973881390        0.3680071611
 C         -1.5400220702       -0.2645579901       -0.5989991126
 C         -2.4081773341        0.8959767840       -0.3424212242
 C         -3.1438205322        0.9391749798        0.7829288371
 C         -4.0978001354        2.0394891614        1.1447090760
 C         -5.5147949762        1.7321059167        0.6403474725
 C         -5.5694838895        1.3037340098       -0.8261951001
 H         -5.0636409486        0.3417338081       -0.9364376932
 H         -6.6199014928        1.1440077738       -1.0790193005
 C         -4.9565611266        2.3134808157       -1.8067669787
 H         -4.8806778282        3.2923672362       -1.3319243271
 H         -5.6264263076        2.4204156612       -2.6626157682
 C         -3.5883550732        1.9117225671       -2.3611828918
 H         -3.3533481361        2.5746144306       -3.1983191825
 H         -3.6378555232        0.8934040422       -2.7552220113
 C         -2.4181975230        1.9917089178       -1.3723133504
 H         -1.4927779703        1.8786933457       -1.9450686835
 H         -2.4095020415        2.9752271247       -0.8975227706
 H         -5.9315418871        0.9252930730        1.2475904300
 H         -6.1330777492        2.6198637393        0.7850811392
 H         -4.1213232752        2.1305852990        2.2318518535
 H         -3.7456124416        2.9767475467        0.7182704118
 O         -3.1340981422       -0.0526753513        1.7082975823
 C         -2.3730133631       -1.1923060385        1.5221481047
 O         -2.4741308286       -2.0305856593        2.4386988499
 O         -0.8199142140       -0.2902975372       -1.6321795150
 C         -0.7518336980       -2.5624814463        0.2409729625
 C          0.6869212216       -2.1822204578        0.4896210350
 C          1.1863368389       -2.1750563597        1.7887192603
 C          2.4701286385       -1.7318598991        2.0499994537
 C          3.2716253500       -1.2563984506        1.0263507633
 C          2.7732910722       -1.2446340366       -0.2693475928
 C          1.5027266640       -1.7336278780       -0.5372715606
 H          1.1282690132       -1.7080661418       -1.5478980185
 N          3.5460550909       -0.6821331643       -1.3031556045
 S          4.1818479521        0.8346157453       -0.9806192219
 O          4.2019864108        1.5279121722       -2.2501790630
 O          5.4652430556        0.6822356607       -0.3389002493
 C          3.0503014090        1.6266080915        0.1555610152
 C          1.7033087215        1.6723678029       -0.1459221390
 C          0.8380891034        2.2737363223        0.7539345958
 C          1.3281797129        2.8254474181        1.9271545804
 C          2.6842805566        2.7810462777        2.2101439783
 C          3.5535489916        2.1727016621        1.3193876022
 H          4.6130100854        2.1028767743        1.5057043479
 H          3.0642502115        3.2110453824        3.1227887301
 H          0.6462458070        3.2883260527        2.6230034264
 H         -0.2183826599        2.2926777006        0.5359748304
 H          1.3274542571        1.2316308120       -1.0561289733
 H          3.0696280378       -0.6801616646       -2.1943157265
 H          4.2658378978       -0.8824460550        1.2118060152
 H          2.8462698253       -1.7412018657        3.0614922618
 H          0.5467857165       -2.5049739444        2.5952039178
 H         -1.0769165478       -3.2207785362        1.0567361458
 C         -0.9774159823       -3.2748784859       -1.0762595649
 C         -0.5003627233       -4.6867003662       -1.2311263828
 C         -1.9677686639       -4.3969029999       -1.1402590443
 H         -2.5710203161       -4.5015234907       -2.0297554244
 H         -2.4856218269       -4.6605115716       -0.2294856556
 H         -0.0941834006       -4.9936439258       -2.1827883536
 H         -0.0208141096       -5.1460050107       -0.3799462609
 H         -0.9183223218       -2.6245334745       -1.9394264069
