  62
        -98.93494379
 C          1.6618588068        0.2080581174        0.8261254269
 C          2.8636469512        0.9163119387        0.5978910952
 C          4.0817312056        0.1104822029        0.3615775880
 C          3.9881787824       -1.2314040565        0.3527065287
 C          5.0704369185       -2.2465467537        0.0962419667
 C          5.4441868083       -2.3559284598       -1.3903522113
 C          5.6085946091       -1.0203000932       -2.1102751407
 H          5.7730012763       -1.2323490641       -3.1700770441
 H          4.6778244888       -0.4553028261       -2.0340460881
 C          6.7689899315       -0.1570221745       -1.6210312565
 H          7.7009481589       -0.7177734393       -1.7217248626
 H          6.8302713949        0.7093931561       -2.2846297943
 C          6.6609243745        0.3554711520       -0.1830400029
 H          7.4046781469        1.1489102524       -0.0640997066
 H          6.9214000060       -0.4195949496        0.5327128917
 C          5.3102394470        0.9682562776        0.1727240715
 H          5.4188566374        1.5327278104        1.1067765348
 H          5.0457724489        1.7157120862       -0.5839012256
 H          6.3673070664       -2.9323944812       -1.4718716180
 H          4.6525289189       -2.9124200921       -1.8979196199
 H          5.9450576796       -2.0212190634        0.6991795522
 H          4.6779847724       -3.2106291554        0.4272606086
 O          2.8021111820       -1.8736477581        0.5548020112
 C          1.6311298232       -1.1897916146        0.7993910573
 O          0.6378116238       -1.9223253823        0.9819994239
 H         -2.0876409610        0.1169613006        0.2087287134
 C         -1.6312772239        0.8475338005       -0.4416670871
 C         -0.3664200207        1.3337111953       -0.1455887463
 C          0.2156735021        2.2584494293       -1.0058455966
 C         -0.4609742631        2.6821546232       -2.1347108576
 C         -1.7336606544        2.2149345282       -2.4130805554
 C         -2.3247551277        1.2925368400       -1.5582071651
 N         -3.6092947055        0.7932950723       -1.8132008256
 S         -4.6658620285        0.5031437053       -0.5484079548
 O         -5.9775417898        0.5469113202       -1.1586934026
 O         -4.4451636727        1.4138850208        0.5501510272
 C         -4.3189143530       -1.1693753695       -0.0503353798
 C         -4.3175919797       -2.1540583716       -1.0180751681
 C         -4.0695478105       -3.4632443772       -0.6393674310
 C         -3.8312839903       -3.7645644762        0.6930671505
 C         -3.8406100606       -2.7653067616        1.6534111570
 C         -4.0874936382       -1.4537508705        1.2804431692
 H         -4.0977997229       -0.6452337973        1.9949644300
 H         -3.6517189577       -3.0009969624        2.6885334655
 H         -3.6348359002       -4.7838118128        0.9861079276
 H         -4.0599289173       -4.2444474089       -1.3823721538
 H         -4.5093888513       -1.8817749653       -2.0425663377
 H         -4.0758003728        1.2005030448       -2.6104443923
 H         -2.2666910662        2.5602195893       -3.2861141193
 H          0.0014228687        3.3966381369       -2.7991508279
 H          1.2003361266        2.6377953239       -0.7802035549
 C          0.3274795639        0.8751234426        1.1147168669
 H         -0.2990187448        0.0929635353        1.5651610694
 C          0.4229978061        2.0298978502        2.0952546430
 C         -0.8354236938        2.5327952693        2.7342197289
 C          0.1729472882        1.7821966034        3.5506024219
 H          0.7591589950        2.3282095320        4.2745731388
 H         -0.0645728391        0.7724891609        3.8531590779
 H         -0.9393809437        3.5948340476        2.8968224233
 H         -1.7624934752        2.0412103909        2.4760804815
 H          1.1800112547        2.7563343101        1.8316202003
 O          2.9550522409        2.1735776527        0.5812763361
