  62
        -98.93575809
 C          1.5885570201        1.3059493903        0.2113233896
 C          1.6999393106       -0.0354865396        0.6524156901
 C          2.8512871707       -0.8130810994        0.1644981501
 C          3.7365621003       -0.2244007794       -0.6612072703
 C          4.9718119203       -0.7648111893       -1.3509271204
 C          5.5833207008       -2.0972796590       -0.9265233401
 C          6.2104689111       -2.0964564783        0.4671540497
 H          6.5211771715       -3.1164474981        0.7036506000
 H          7.1077457809       -1.4728035481        0.4440808193
 C          5.3176663612       -1.5759647382        1.5908203098
 H          5.0789490609       -0.5252061483        1.4135595794
 H          5.8900175615       -1.6222242177        2.5213946896
 C          4.0190676915       -2.3506191985        1.8063089804
 H          3.5635926416       -1.9787276683        2.7282469803
 H          4.2424400319       -3.4097726783        1.9488293507
 C          2.9717570012       -2.2159484892        0.6872111206
 H          3.1697366912       -2.9132262194       -0.1237359392
 H          1.9959901814       -2.4700790593        1.1122254709
 H          6.3777469907       -2.3178447390       -1.6446622902
 H          4.8502941210       -2.8936347392       -1.0142508396
 H          5.7292061501        0.0206453609       -1.2632246609
 H          4.7140287900       -0.8248556098       -2.4140436704
 O          3.5864046998        1.0695354604       -1.0639747108
 C          2.5230851697        1.8656894902       -0.6587995008
 O          2.5489757192        3.0120970000       -1.1400203112
 O          0.8604625309       -0.5687539695        1.4275301505
 C          0.3873943400        2.0865527701        0.7140647897
 C         -0.7771596702        1.8850451994       -0.2214585400
 C         -0.6635265906        2.1600763189       -1.5816636601
 C         -1.7362412708        1.9520953683       -2.4282620398
 C         -2.9302597505        1.4459836182       -1.9428204893
 C         -3.0500849701        1.1579104486       -0.5890005592
 C         -1.9785125000        1.3917885292        0.2635274705
 H         -2.0873619096        1.1625589196        1.3126872206
 N         -4.2480175598        0.6420037585       -0.0656067487
 S         -4.1993531992       -0.7098265112        0.9248491618
 O         -5.5753168890       -1.1510028415        0.9938732823
 O         -3.5764602790       -0.3770896705        2.1790335115
 C         -3.2339749791       -1.8986679712        0.0109080520
 C         -3.9043046790       -2.7182805017       -0.8779635475
 C         -3.1797379590       -3.6082127518       -1.6526576274
 C         -1.7983679789       -3.6556169114       -1.5361649877
 C         -1.1419988990       -2.8249415809       -0.6423648182
 C         -1.8607501790       -1.9363864008        0.1430960317
 H         -1.3557861990       -1.2917975804        0.8454315213
 H         -0.0679014989       -2.8511333105       -0.5441293884
 H         -1.2301184289       -4.3441068414       -2.1416314476
 H         -3.6904126090       -4.2581965822       -2.3447736270
 H         -4.9791906591       -2.6533030421       -0.9306655973
 H         -4.9849553200        0.5422238580       -0.7495336885
 H         -3.7635976306        1.2754059177       -2.6072809390
 H         -1.6394864911        2.1768207480       -3.4797030599
 H          0.2730523592        2.5403394191       -1.9616952705
 H          0.1210520003        1.6101771104        1.6716557399
 C          0.6834253596        3.5500359803        1.0070671990
 C          0.0809871791        4.6888196698        0.2456139788
 C         -0.3737835405        4.4037495102        1.6434375790
 H         -0.0885452905        5.0813366006        2.4339146487
 H         -1.3521786803        3.9636801700        1.7709268594
 H          0.7038041488        5.5517643299        0.0660960283
 H         -0.5951608011        4.4653118693       -0.5640947310
 H          1.6999841896        3.6962066907        1.3573310387
