  62
        -98.93579905
 C         -2.1583233769       -0.3450252368        0.4354214630
 C         -3.2600163211       -0.7048800356       -0.3803617366
 C         -4.1946839699        0.3832505803       -0.7041304542
 C         -3.9534631262        1.6327444345       -0.2710573981
 C         -4.7942287338        2.8485100181       -0.5526360142
 C         -5.9880627712        3.0160934549        0.3974239068
 C         -7.1366912338        2.0306234146        0.1782359620
 H         -7.4287702530        2.0434374065       -0.8721975712
 H         -7.9867459494        2.3960479404        0.7577816448
 C         -6.8267204288        0.5908508640        0.6111371277
 H         -7.6651803016        0.1959460195        1.1892852387
 H         -5.9550847249        0.5887614723        1.2699468242
 C         -6.5761342078       -0.3783663332       -0.5441876177
 H         -7.4870418681       -0.4841075522       -1.1373538290
 H         -6.3323136768       -1.3571517223       -0.1235305343
 C         -5.4307457385        0.0345110676       -1.4778249997
 H         -5.7376929888        0.8730201245       -2.1022458694
 H         -5.1900824153       -0.8145090134       -2.1219044210
 H         -6.3742263263        4.0285940631        0.2590387808
 H         -5.6288392251        2.9355027229        1.4260654767
 H         -5.1490449447        2.8178193692       -1.5831821099
 H         -4.1368284676        3.7128638291       -0.4362622438
 O         -2.8666148421        1.9451744152        0.4860831505
 C         -1.9657895131        0.9681596107        0.8739877314
 O         -1.0468711169        1.3873692815        1.6084060780
 O         -3.4721817229       -1.8616212247       -0.8243205583
 C         -1.1003530860       -1.3418150067        0.8837005930
 C         -0.0398914047       -1.4625152339       -0.1810353329
 C         -0.3530256857       -1.9188256679       -1.4590425825
 C          0.6263256933       -1.9996265383       -2.4307587918
 C          1.9280062803       -1.6191857292       -2.1535165328
 C          2.2502167854       -1.1601716220       -0.8820265841
 C          1.2671184835       -1.0899168424        0.0961720719
 H          1.5255191761       -0.7124709951        1.0744413691
 N          3.5730466253       -0.7966677321       -0.5685264778
 S          3.8161898000        0.5669958435        0.4015777815
 O          3.6041455613        0.1997035721        1.7785842022
 O          3.0427183876        1.6781079770       -0.1061511866
 C          5.5555411111        0.8446658703        0.1197798595
 C          5.9513809720        1.7932568248       -0.8040270938
 C          7.3053021302        1.9805135252       -1.0348968156
 C          8.2350370623        1.2177996967       -0.3443327412
 C          7.8225370892        0.2697416229        0.5803563277
 C          6.4705945673        0.0785889308        0.8170302217
 H          6.1027843804       -0.6384361208        1.5321480473
 H          8.5483376944       -0.3192032450        1.1174551098
 H          9.2878646505        1.3655769777       -0.5257747674
 H          7.6286680227        2.7194314818       -1.7502448609
 H          5.1925158467        2.3686713492       -1.3098293325
 H          4.1600862999       -0.7523260135       -1.3915761197
 H          2.6899265400       -1.6764342848       -2.9163021996
 H          0.3724779363       -2.3550657600       -3.4181238749
 H         -1.3717100303       -2.2021207455       -1.6758981986
 H         -0.6281939483       -0.8791618688        1.7650070613
 C         -1.6896661548       -2.6775744930        1.3223254208
 C         -1.2774502752       -3.9956204907        0.7432789451
 C         -0.8488216214       -3.6237713867        2.1281561849
 H         -1.2975753641       -4.1300144295        2.9694816681
 H          0.1868970987       -3.3544027288        2.2764822429
 H         -2.0430626299       -4.7465677285        0.6210709653
 H         -0.5294131102       -4.0038133850       -0.0334593747
 H         -2.7303811899       -2.5908284028        1.6145716462
