  62
        -98.94307924
 C         -1.7173726818       -1.4797584066       -0.0799972734
 C         -3.0024332942       -1.1968697242        0.4581456264
 C         -3.7233294952       -0.0638594859       -0.1308860884
 C         -3.1567478421        0.6405124838       -1.1263802015
 C         -3.7546053767        1.8302821007       -1.8263484194
 C         -3.5284632224        3.1581252662       -1.0902738890
 C         -4.3602351562        3.3461163148        0.1790355403
 H         -4.2706140893        4.3950372116        0.4683750611
 H         -5.4110746745        3.1602272458       -0.0454903834
 C         -3.9211713990        2.4697096605        1.3606956562
 H         -2.9117889687        2.0920655726        1.1812836938
 H         -3.8779933576        3.0770167396        2.2675451313
 C         -4.8462967087        1.2881222587        1.6533274742
 H         -4.4225503502        0.7196703350        2.4851583709
 H         -5.8264436258        1.6572446974        1.9635502381
 C         -5.0383772330        0.3260867841        0.4731597372
 H         -5.6838956276        0.7778264267       -0.2799180778
 H         -5.5182664704       -0.5821710078        0.8460393809
 H         -2.4676879383        3.2463375375       -0.8448513219
 H         -3.7777342700        3.9630788168       -1.7854710787
 H         -4.8230702947        1.6717835108       -1.9744348404
 H         -3.2741778458        1.8913058099       -2.8054188763
 O         -1.9373191508        0.3279494528       -1.6320755188
 C         -1.1781400060       -0.7190271126       -1.1196382013
 O         -0.0802529187       -0.8474814189       -1.6913505403
 O         -3.5206330737       -1.8604591247        1.3943631673
 C         -0.9113667609       -2.5700283404        0.6092980266
 C          0.3836199204       -1.9594982864        1.0784506784
 C          0.4218722112       -1.2592362048        2.2806324032
 C          1.5720011659       -0.6039055455        2.6800212087
 C          2.6936055834       -0.6003745218        1.8690750919
 C          2.6549105071       -1.2781786220        0.6575418655
 C          1.5196772772       -1.9853730330        0.2851605231
 H          1.5024300244       -2.5129753876       -0.6553362365
 N          3.7617622890       -1.2139593062       -0.2067697365
 S          4.4934846892        0.2803938416       -0.3912206046
 O          5.0202345702        0.2866843348       -1.7388750208
 O          5.4739387411        0.4576727176        0.6538462741
 C          3.2207516702        1.5239158970       -0.2142561918
 C          2.0467302446        1.4022655259       -0.9295144183
 C          1.0745030217        2.3800193783       -0.7884697784
 C          1.2909362302        3.4610519597        0.0509617788
 C          2.4800036637        3.5731549335        0.7552684227
 C          3.4534984643        2.5964493926        0.6242411756
 H          4.3873778452        2.6388701764        1.1612357532
 H          2.6482321518        4.4147221636        1.4078494606
 H          0.5294752582        4.2180005177        0.1574301309
 H          0.1493553233        2.2744472122       -1.3341643841
 H          1.8693399630        0.5500367499       -1.5661221041
 H          3.5882489634       -1.6385522164       -1.1065841823
 H          3.5930509745       -0.0774622121        2.1520669797
 H          1.5926163200       -0.0763002217        3.6212417964
 H         -0.4667535013       -1.2263077566        2.8954449814
 H         -1.5114351847       -2.8278193423        1.4962491673
 C         -0.7213152238       -3.8620843298       -0.1687578561
 C         -1.8759602177       -4.4710736027       -0.9063000108
 C         -0.6939455577       -3.9490334815       -1.6637294033
 H         -0.0206874709       -4.6639642208       -2.1149004113
 H         -0.8050464388       -3.0405282910       -2.2328779955
 H         -2.0255652434       -5.5386229919       -0.8489926130
 H         -2.7929527377       -3.9006330680       -0.9411885771
 H         -0.0715209487       -4.5510206221        0.3633407552
