  62
        -98.93509986
 C         -2.5486426527       -0.2882418651        0.6131641403
 C         -2.3057981628        0.3950221628       -0.6046741169
 C         -2.0230022191        1.8335622267       -0.4932852805
 C         -1.9356842947        2.4052788730        0.7194005074
 C         -1.6208470868        3.8478818610        1.0104047389
 C         -0.2065324675        4.2988572879        0.5950729789
 C         -0.1448152599        4.9829754862       -0.7765222089
 H         -1.1322125749        5.3796232064       -1.0163249487
 H          0.5301127899        5.8389029926       -0.7121777019
 C          0.3487754667        4.1097660257       -1.9340428883
 H          1.4365007077        4.0287163761       -1.8782933520
 H          0.1026214523        4.6240744129       -2.8661229662
 C         -0.2097814154        2.6863998948       -1.9922796239
 H          0.2925844872        2.0557095418       -1.2546542106
 H          0.0366791884        2.2655276306       -2.9697313811
 C         -1.7299089437        2.5785835346       -1.7633745435
 H         -2.1891563779        3.5660494987       -1.7422174061
 H         -2.1823742177        2.0020749479       -2.5730895401
 H          0.4647558415        3.4393322380        0.6236261398
 H          0.1397502920        5.0068076809        1.3499305879
 H         -1.7344498065        3.9625620810        2.0902859432
 H         -2.3670398878        4.4810854063        0.5252366585
 O         -2.1466692779        1.7092895171        1.8709317505
 C         -2.4310065739        0.3549636912        1.8464120891
 O         -2.5607570265       -0.1585834738        2.9781782915
 O         -2.3273271006       -0.1523805047       -1.7370977878
 C         -2.7411601287       -1.7971650511        0.6540969511
 C         -1.6375311422       -2.4196165834       -0.1659684646
 C         -1.8383422135       -3.2627364219       -1.2490085083
 C         -0.7566736190       -3.7165462957       -1.9852607234
 C          0.5323874769       -3.3298569089       -1.6702222011
 C          0.7434795658       -2.4974869451       -0.5751056447
 C         -0.3359623545       -2.0740916686        0.1784910833
 H         -0.1665658498       -1.4242285495        1.0267268572
 N          2.0408227746       -2.0970004955       -0.2101090761
 S          2.2484756180       -0.6323849938        0.6005493541
 O          1.9915440737       -0.8448837454        2.0044371667
 O          1.4985752887        0.4270401422       -0.0351151973
 C          3.9965565598       -0.3890892454        0.3455845668
 C          4.4267549027        0.4451775586       -0.6686091590
 C          5.7884318071        0.5977403466       -0.8791544591
 C          6.6912875974       -0.0861333255       -0.0790497016
 C          6.2444235746       -0.9200564346        0.9354063414
 C          4.8845882327       -1.0755404099        1.1522309870
 H          4.4889204873       -1.7040343542        1.9329758077
 H          6.9490977968       -1.4482420143        1.5571102807
 H          7.7501025522        0.0334950315       -0.2455300213
 H          6.1382865494        1.2476053168       -1.6649344314
 H          3.6873752098        0.9600936890       -1.2611992901
 H          2.7155073091       -2.2160452914       -0.9531427407
 H          1.3692189468       -3.6614507438       -2.2657911533
 H         -0.9237855562       -4.3630732562       -2.8335108990
 H         -2.8400314334       -3.5358025239       -1.5376328258
 H         -2.5692830639       -2.0713954893        1.7090240189
 C         -4.1345648743       -2.2905629643        0.3018899513
 C         -5.3339324672       -1.4196469272        0.5269663100
 C         -4.9112174534       -1.7673798340       -0.8671071684
 H         -5.5207756841       -2.4636024307       -1.4246827721
 H         -4.4474585977       -1.0062341828       -1.4729700876
 H         -6.2300201057       -1.8715909958        0.9251496198
 H         -5.1564185713       -0.4136227096        0.8798688770
 H         -4.2571905412       -3.3440692216        0.5352758911
