  62
        -98.93441269
 C         -2.2786192167       -1.4015990934        0.2236256596
 C         -2.5578218677       -0.4480624191        1.2363964790
 C         -3.1699562537        0.8152509827        0.8062786490
 C         -3.4328625309        1.0005153912       -0.4994497922
 C         -3.9479693974        2.2697072352       -1.1158398413
 C         -2.7919362895        3.2811694458       -1.2592886546
 C         -2.9347056227        4.5311394024       -0.3894573124
 H         -1.9716886951        5.0460851919       -0.4035916515
 H         -3.6723402886        5.1959788912       -0.8443047705
 C         -3.3528767822        4.2933910323        1.0648073144
 H         -3.1569341595        5.2212911885        1.6061799964
 H         -4.4298268982        4.1254286745        1.1135478193
 C         -2.6423806377        3.1416615277        1.7876891304
 H         -1.6782220053        2.9312934759        1.3219800309
 H         -2.4392930609        3.4564568323        2.8133154335
 C         -3.4596269201        1.8382447779        1.8685911514
 H         -4.5273853273        2.0733685574        1.8718964777
 H         -3.2275498306        1.3364444765        2.8124111786
 H         -1.8543972334        2.7714830773       -1.0197022477
 H         -2.7126781903        3.5980313311       -2.3007923142
 H         -4.3533522728        2.0160769859       -2.0957133064
 H         -4.7457220072        2.6825722387       -0.5025424759
 O         -3.1736263712        0.0579839683       -1.4401797655
 C         -2.5605705762       -1.1477592814       -1.1178617167
 O         -2.3425562564       -1.8716335523       -2.1088907075
 O         -2.3014530373       -0.6521596049        2.4535647501
 C         -1.5594860174       -2.6633079390        0.6715921631
 C         -0.0750222401       -2.3986290583        0.6665664084
 C          0.7208029567       -2.6642991167        1.7738869035
 C          2.0687045537       -2.3467655945        1.7670303801
 C          2.6446969302       -1.7410315005        0.6638912375
 C          1.8555320937       -1.4721095816       -0.4460850326
 C          0.5143159335       -1.8135346458       -0.4462116145
 H         -0.0889967601       -1.5958058476       -1.3164761531
 N          2.4230442389       -0.7802323057       -1.5514303093
 S          2.3604776214        0.8911405991       -1.3083053599
 O          1.1182830326        1.2906512904       -0.6812271526
 O          2.6430397533        1.4880707518       -2.5954806631
 C          3.7253265891        1.1605097125       -0.2012479052
 C          5.0066131890        1.0614795227       -0.7082681417
 C          6.0800795822        1.2273408532        0.1520407743
 C          5.8542731496        1.4843934008        1.4964437893
 C          4.5615827140        1.5806635770        1.9889758818
 C          3.4829270644        1.4165855819        1.1336334218
 H          2.4605236077        1.4767390306        1.4720900078
 H          4.3873628926        1.7786893397        3.0343173451
 H          6.6908753829        1.6100465852        2.1654611922
 H          7.0867630781        1.1534298479       -0.2265160384
 H          5.1316408291        0.8632938096       -1.7597344128
 H          1.9341161043       -0.9813945289       -2.4147492316
 H          3.6895452376       -1.4770786747        0.6531037392
 H          2.6736301868       -2.5593389798        2.6347602238
 H          0.2701388837       -3.1018088263        2.6525243441
 H         -1.8658914234       -2.8094925609        1.7194331892
 C         -1.9536398272       -3.9126658607       -0.1001781819
 C         -1.0413052439       -4.6095532277       -1.0604266970
 C         -1.3469192432       -5.2353370585        0.2652090069
 H         -1.9836313370       -6.1061888003        0.2937879297
 H         -0.5636799987       -5.2324524305        1.0080744766
 H         -1.4821618511       -5.0276293692       -1.9523784704
 H         -0.0551718246       -4.2009082791       -1.2171186157
 H         -3.0076541865       -3.9126376737       -0.3573679330
