  62
        -98.94640147
 C         -1.5835941331       -1.0809164601        0.0451834085
 C         -2.6561858649       -0.8269442483        0.9370946432
 C         -3.3776651316        0.4362937655        0.7376783885
 C         -2.9628281054        1.2853076383       -0.2199997320
 C         -3.6250102242        2.5899692856       -0.5537031429
 C         -4.6878059819        2.4095374372       -1.6468018743
 C         -5.6581858715        1.2584747989       -1.3816515435
 H         -6.3787150596        1.2452649260       -2.2023743378
 H         -5.1109741539        0.3137460089       -1.4203078784
 C         -6.4079099699        1.3544379096       -0.0455143534
 H         -6.3599471612        2.3757690304        0.3339867225
 H         -7.4610502955        1.1224926160       -0.2179916419
 C         -5.9103565627        0.3893754707        1.0323562583
 H         -5.8699954505       -0.6243625917        0.6256388037
 H         -6.6393273242        0.3852651864        1.8470928549
 C         -4.5426757777        0.7194413773        1.6435295565
 H         -4.5303054960        1.7590764357        1.9766426075
 H         -4.4054863533        0.0769780057        2.5181770289
 H         -4.1809192299        2.2173169891       -2.5953292117
 H         -5.2457060140        3.3427195293       -1.7435201032
 H         -2.8635321927        3.2838117058       -0.9136253313
 H         -4.0803232478        3.0005935916        0.3452760789
 O         -1.9090950316        1.0240840695       -1.0332378156
 C         -1.2061324564       -0.1697319567       -0.9410480875
 O         -0.2928558194       -0.2817124636       -1.7804570164
 O         -2.9927082803       -1.6205989504        1.8552853679
 C         -0.7908133392       -2.3657564365        0.2276543894
 C          0.5890304731       -1.9701598182        0.6889627287
 C          0.7907274248       -1.6310788171        2.0244761473
 C          2.0150619795       -1.1572675563        2.4569136151
 C          3.0571498155       -0.9846680356        1.5617702824
 C          2.8597576961       -1.3089538031        0.2266050871
 C          1.6425733139       -1.8233847581       -0.1990484154
 H          1.5071795634       -2.0649298862       -1.2409256303
 N          3.8912767238       -1.0787392995       -0.7019673002
 S          4.6558256145        0.4076036118       -0.6130065477
 O          5.0719818025        0.7086461496       -1.9655609178
 O          5.7201095631        0.3365946165        0.3591774551
 C          3.4301163432        1.5839117414       -0.0574086020
 C          2.2052454366        1.6372429099       -0.6920668019
 C          1.2647743424        2.5556436817       -0.2537713076
 C          1.5619302799        3.4062372909        0.7992293544
 C          2.7997486304        3.3457149232        1.4207324633
 C          3.7422071875        2.4253653468        0.9919333348
 H          4.7123005096        2.3368070135        1.4537275889
 H          3.0303138668        4.0083966590        2.2392872677
 H          0.8235754029        4.1168048021        1.1363678383
 H          0.3004008845        2.5844162852       -0.7368171392
 H          1.9687494416        0.9640551858       -1.5009330426
 H          3.6224535388       -1.2820241571       -1.6541625951
 H          4.0135121131       -0.5972923927        1.8744299568
 H          2.1580057594       -0.9056020333        3.4966011395
 H         -0.0335542948       -1.7294784237        2.7168650193
 H         -1.2895927512       -2.9046312515        1.0438850837
 C         -0.8075259288       -3.2326689297       -1.0130557148
 C         -0.3640943433       -4.6609643992       -0.9154783296
 C         -1.8128467049       -4.3381813773       -1.1207717624
 H         -2.2551703126       -4.5394885011       -2.0850523300
 H         -2.4910520275       -4.4801007377       -0.2921718041
 H          0.1898094472       -5.0880860315       -1.7375247562
 H         -0.0569444025       -5.0204550200        0.0549309625
 H         -0.5752367861       -2.6905359087       -1.9217449640
