  62
        -98.93672124
 C         -2.4161960393       -1.1232570994        0.1945742382
 C         -2.5336378992        0.0369191910       -0.6099245212
 C         -3.9084045992        0.4571706013       -0.9288419809
 C         -4.9474937092       -0.2552430089       -0.4587518714
 C         -6.3929120292        0.0924878213       -0.6636467112
 C         -6.9172041292        0.9746226007        0.4781725293
 C         -6.0186763391        2.1695392904        0.7973515100
 H         -6.5023221391        2.7357771500        1.5962685103
 H         -5.0673414091        1.8054754202        1.1922892098
 C         -5.7483012790        3.0968997211       -0.3956490395
 H         -6.4909805690        2.9234794816       -1.1752150296
 H         -5.8593677390        4.1321145709       -0.0663293489
 C         -4.3462756990        2.9686788114       -0.9945417495
 H         -4.1899555890        3.8085842918       -1.6766732990
 H         -3.5984103690        3.0482765409       -0.2013597895
 C         -4.0724413791        1.6822337018       -1.7838806002
 H         -3.1209654191        1.8111226721       -2.3082412502
 H         -4.8575110091        1.5314762123       -2.5276871403
 H         -7.9148447391        1.3278588509        0.2112923695
 H         -7.0029904692        0.3609126902        1.3778695390
 H         -6.9689699393       -0.8339971286       -0.6892107617
 H         -6.5063834692        0.6062127119       -1.6161583909
 O         -4.7953106693       -1.3603905294        0.3154381880
 C         -3.5354800593       -1.8070216296        0.6766493178
 O         -3.5425053494       -2.8053121601        1.4243658872
 O         -1.5551410592        0.6974502512       -1.0444419108
 C         -1.0631609493       -1.6636408698        0.6224682279
 C         -0.1581817793       -0.5388951801        1.0623587385
 C         -0.5677619992        0.2742865994        2.1169292990
 C          0.2325484408        1.3053813091        2.5672998996
 C          1.4717541208        1.5329652593        1.9942182197
 C          1.8885489408        0.7293972399        0.9408073093
 C          1.0733153508       -0.2944410798        0.4780480487
 H          1.4164820107       -0.8849905793       -0.3546633817
 N          3.1314843908        0.9412747202        0.3220424194
 S          3.9957943108       -0.4108030296       -0.2006092313
 O          3.5651855607       -0.7646355788       -1.5296432916
 O          3.9220449107       -1.4588804701        0.7930775080
 C          5.6471321108        0.2608916604       -0.2657925709
 C          6.5028773108        0.0600676297        0.8008638590
 C          7.7750955708        0.6080438096        0.7521883293
 C          8.1667972309        1.3461753603       -0.3545463603
 C          7.2969261109        1.5390593709       -1.4176489102
 C          6.0239907409        0.9928348610       -1.3761397505
 H          5.3171979109        1.1080078115       -2.1814114005
 H          7.6059591609        2.1109525214       -2.2776932699
 H          9.1574710009        1.7710550002       -0.3904108100
 H          8.4547702208        0.4569384291        1.5752815992
 H          6.1579222507       -0.5283353908        1.6358972086
 H          3.7179220009        1.5923524998        0.8257380798
 H          2.1029434109        2.3325109491        2.3516208602
 H         -0.1041559292        1.9313131486        3.3803316399
 H         -1.5311708393        0.0879985592        2.5736448489
 H         -1.2722810294       -2.2853158703        1.5101234375
 C         -0.4104406194       -2.5814802492       -0.4006074727
 C         -1.2302614694       -3.3947765286       -1.3557520531
 C         -0.3925890693       -2.2618527684       -1.8638816925
 H          0.5036458307       -2.4882316881       -2.4238868226
 H         -0.8848303493       -1.3563199882       -2.1815125820
 H         -0.9154838595       -4.4056580785       -1.5670313637
 H         -2.3027990994       -3.2669148486       -1.3296540431
 H          0.4776987406       -3.0637318095       -0.0004077129
