  62
        -98.94453449
 C         -1.3646710441       -1.0211395262       -0.0880065777
 C         -2.6313693674       -1.3459626298        0.4558593343
 C         -3.5245670915       -0.2122000661        0.7284233151
 C         -3.0887044666        1.0390385326        0.4933033917
 C         -3.9073710691        2.2818347792        0.6875222393
 C         -4.6522746539        2.6622744910       -0.5996115259
 C         -5.4137313806        1.5006067245       -1.2380186639
 H         -5.9250646255        1.8919360675       -2.1202895756
 H         -4.6972591967        0.7536489911       -1.5875175504
 C         -6.4361310749        0.8264767061       -0.3123683665
 H         -7.3626883497        0.6703075954       -0.8689578274
 H         -6.6691170159        1.4851996300        0.5250049923
 C         -6.0034137536       -0.5397700771        0.2232307721
 H         -6.8749717855       -1.0179205103        0.6783664893
 H         -5.6803064014       -1.1728152350       -0.6071488182
 C         -4.8891360711       -0.5212163641        1.2773402547
 H         -5.1512403989        0.1744269594        2.0770546983
 H         -4.8197021728       -1.5256973005        1.7049881775
 H         -3.9243308655        3.0329648702       -1.3247882043
 H         -5.3472287774        3.4721624386       -0.3704229585
 H         -4.6177080721        2.1206894079        1.4959693159
 H         -3.2355793947        3.0963743118        0.9620704233
 O         -1.8548883016        1.3141334463        0.0007984599
 C         -0.9656527752        0.2963291730       -0.3170902082
 O          0.1161422170        0.6942034059       -0.7838183029
 H          2.1486097229       -1.1513442879       -0.8555094365
 C          1.9911256492       -1.4721626975        0.1596628134
 C          0.7797905497       -2.0202443233        0.5516442509
 C          0.6200189983       -2.4152171536        1.8781438896
 C          1.6490104498       -2.2691769740        2.7877865925
 C          2.8537238413       -1.7106723250        2.3968802680
 C          3.0202657003       -1.3073893045        1.0771101327
 N          4.2344880320       -0.7451823730        0.6573936732
 S          4.3024219875        0.4423014585       -0.5102700114
 O          4.0511427228       -0.1202057008       -1.8136547339
 O          5.6208116274        1.0205851497       -0.3331418158
 C          3.0851994295        1.6851829929       -0.1133841675
 C          2.7470759798        1.9340234303        1.2005207740
 C          1.8479779402        2.9504531065        1.4787719311
 C          1.3155749447        3.7061234958        0.4471739002
 C          1.6729519023        3.4498673262       -0.8659190761
 C          2.5641042281        2.4292816868       -1.1503584871
 H          2.8507117188        2.1835356730       -2.1603944935
 H          1.2501650770        4.0311951669       -1.6698926444
 H          0.6110478150        4.4932058172        0.6669943999
 H          1.5608411508        3.1448627337        2.5002921522
 H          3.1663020035        1.3348807110        1.9926793033
 H          4.9121802238       -0.5850761851        1.3880543637
 H          3.6597811539       -1.5905860898        3.1049263068
 H          1.5128808599       -2.5857926603        3.8107282135
 H         -0.3281896809       -2.8343043591        2.1851518616
 C         -0.3925233727       -2.1503161175       -0.3877244362
 H         -0.9325821482       -3.0742124272       -0.1380912404
 C         -0.0044008053       -2.1944163153       -1.8497491928
 C          0.6085220280       -3.4424632996       -2.4084792003
 C         -0.7880075095       -3.0564748899       -2.7914799684
 H         -0.9678561676       -2.6946345280       -3.7928143507
 H         -1.6067466278       -3.6291746100       -2.3805511702
 H          1.3930825452       -3.3450486505       -3.1434768841
 H          0.7375158099       -4.2776396629       -1.7365595329
 H          0.3516689882       -1.2440976818       -2.2296861088
 O         -2.9968890194       -2.5268757080        0.7025441819
