  62
        -98.95046039
 C         -1.7580155898       -1.2899382901       -0.2398789007
 C         -2.8567487798       -0.6577354205        0.3856021595
 C         -3.2777061098        0.6230018798       -0.1955859498
 C         -2.6166411897        1.1121450004       -1.2607766994
 C         -2.9242494397        2.4172016508       -1.9355453487
 C         -2.0877139098        3.5628852705       -1.3511161980
 C         -2.1196246599        3.6389512996        0.1753708621
 H         -1.5944317100        2.7711261594        0.5823804516
 H         -1.5377068100        4.5168357095        0.4668950926
 C         -3.5262560800        3.7339022892        0.7826631520
 H         -4.2353442599        4.0668206396        0.0234018721
 H         -3.5130277601        4.4914902288        1.5692711325
 C         -4.0360767600        2.4407599688        1.4218088912
 H         -3.2737295201        2.0466681385        2.0993498511
 H         -4.9163708601        2.6832817185        2.0235754113
 C         -4.4392050399        1.3262498394        0.4480477505
 H         -4.9728366499        0.5612444090        1.0200571001
 H         -5.1179675898        1.7259275098       -0.3082597193
 H         -2.4474293298        4.5033620907       -1.7740195774
 H         -1.0471481698        3.4245802707       -1.6544600579
 H         -2.6918366896        2.3164795314       -2.9973716687
 H         -3.9848643597        2.6355363007       -1.8246921087
 O         -1.5668552797        0.4757421308       -1.8368308497
 C         -1.0906746897       -0.7178932195       -1.3219314503
 O         -0.0927320896       -1.1727280591       -1.9152946505
 H         -0.1082207299       -0.4972502111        1.5143664499
 C          0.6183071001       -1.2709794510        1.3132915495
 C          0.2181877602       -2.4519141406        0.7014014588
 C          1.1751021602       -3.4326482505        0.4714398983
 C          2.4983765402       -3.2183086206        0.8181385486
 C          2.9001895301       -2.0174883009        1.3741397793
 C          1.9478744701       -1.0351578611        1.6177497498
 N          2.2976743100        0.2262432186        2.1477439605
 S          2.0777171100        1.5306541492        1.1127442113
 O          2.5607535799        2.6810343288        1.8471024320
 O          0.7093860301        1.5825604294        0.6720898012
 C          3.1886812002        1.1877946500       -0.2404698588
 C          4.4544779001        1.7421880200       -0.2028034684
 C          5.3601164202        1.4199613206       -1.1997811185
 C          4.9898618504        0.5417251612       -2.2076273991
 C          3.7179990404       -0.0086580588       -2.2279282695
 C          2.8031232703        0.3124363006       -1.2357041794
 H          1.8067848303       -0.1030450394       -1.2399935497
 H          3.4210205605       -0.6916480984       -3.0076476399
 H          5.6949309104        0.2853519717       -2.9826214091
 H          6.3488207302        1.8496311207       -1.1863781082
 H          4.6946733601        2.4212038696        0.5995803020
 H          3.2369640200        0.2617980184        2.5213940906
 H          3.9371469301       -1.8379281010        1.6153047995
 H          3.2299978803       -3.9896310105        0.6323574882
 H          0.8858911203       -4.3639448702        0.0125402778
 C         -1.2347398398       -2.5994245604        0.3217980686
 H         -1.8177345998       -2.7813789710        1.2374478184
 C         -1.4880809396       -3.7321923099       -0.6519246021
 C         -1.7341029496       -5.1239782502       -0.1525413429
 C         -2.8622425396       -4.3244977399       -0.7295259526
 H         -3.2513618995       -4.6000714793       -1.6981364228
 H         -3.6087778497       -3.9285818303       -0.0564644024
 H         -1.3510810196       -5.9532863798       -0.7279383934
 H         -1.7218422297       -5.2822534408        0.9152240970
 H         -0.9433911796       -3.6080334193       -1.5813269320
 O         -3.4583138099       -1.1442492411        1.3829896892
