  62
        -98.94543027
 C         -2.6585147698       -1.0527339725        0.2700835826
 C         -2.5338454213       -0.2898745228       -0.9167479308
 C         -3.1350744307        1.0512658227       -0.8804977620
 C         -3.7638155423        1.4637371923        0.2351515951
 C         -4.3611951236        2.8266512328        0.4299695990
 C         -3.3425045997        3.7915509618        1.0530999956
 C         -1.9815762060        3.7903267033        0.3554316440
 H         -1.3531336783        4.5271129490        0.8612039209
 H         -1.5020502019        2.8179023939        0.4960694013
 C         -2.0362404987        4.1097027424       -1.1450111626
 H         -2.9846060544        4.5914717990       -1.3867862204
 H         -1.2399677854        4.8194627817       -1.3788175331
 C         -1.8334544309        2.8998095667       -2.0594482104
 H         -0.9264590016        2.3640658431       -1.7627836798
 H         -1.6735647981        3.2674277663       -3.0767537773
 C         -2.9975614157        1.9014461018       -2.1114515424
 H         -3.9280166515        2.4328048669       -2.3216933632
 H         -2.8014612496        1.2077055662       -2.9341250545
 H         -3.1909184738        3.5092673051        2.0976166723
 H         -3.7612083398        4.7991262368        1.0308262136
 H         -5.2178807267        2.7352315773        1.0996766187
 H         -4.7004771218        3.2099482949       -0.5300573492
 O         -3.8784344519        0.6949549210        1.3488127553
 C         -3.3073546515       -0.5670120008        1.4038636595
 O         -3.4399533462       -1.1447957674        2.5026255203
 O         -1.9499495233       -0.7039791750       -1.9512878758
 C         -2.0134463383       -2.4253366876        0.3545073102
 C         -0.5292420179       -2.2856494002        0.1136394146
 C          0.1863016969       -3.0680673442       -0.7819695864
 C          1.5397471400       -2.8492259111       -0.9764679955
 C          2.2075367722       -1.8565589197       -0.2834824944
 C          1.5033477585       -1.0758465340        0.6242157053
 C          0.1510909685       -1.3010275450        0.8204572631
 H         -0.3978730428       -0.6859090660        1.5249144290
 N          2.1760014991       -0.0623319070        1.3383417536
 S          2.8827123997        1.1526294055        0.4101721425
 O          2.9545548956        2.3034335845        1.2849949167
 O          2.1852807108        1.3384200784       -0.8410340004
 C          4.5287483001        0.5423953159        0.1166582968
 C          4.9770758006        0.3583121549       -1.1763768891
 C          6.2629396581       -0.1198937032       -1.3769368254
 C          7.0719217889       -0.4035149328       -0.2871848430
 C          6.6067667033       -0.2106483409        1.0053552498
 C          5.3231764797        0.2681810925        1.2128540397
 H          4.9229679288        0.4359849785        2.1987606187
 H          7.2388454706       -0.4322685653        1.8500814353
 H          8.0710843142       -0.7771724769       -0.4462349090
 H          6.6262876194       -0.2702162537       -2.3808113868
 H          4.3087749035        0.5859245209       -1.9915826999
 H          1.6041506700        0.3572151649        2.0583678393
 H          3.2590420934       -1.6783148111       -0.4393154704
 H          2.0813706409       -3.4589612294       -1.6833452097
 H         -0.3182011505       -3.8397846254       -1.3395387555
 H         -2.1625075947       -2.7696797785        1.3884816745
 C         -2.6970086167       -3.3942404415       -0.5863819503
 C         -2.7090700303       -4.8605927024       -0.2783180144
 C         -3.9658131820       -4.0559274203       -0.1429131995
 H         -4.7531804572       -4.1985968579       -0.8676377790
 H         -4.3240760509       -3.8242647116        0.8498489683
 H         -2.6371014567       -5.5604237702       -1.0970326209
 H         -2.2167148539       -5.1853399832        0.6257843279
 H         -2.6291981593       -3.0853667756       -1.6229567683
