  62
        -98.94070539
 C          1.0176410032        1.4391183101       -0.0920154846
 C          1.8646540262        0.9328137832        0.9212813928
 C          2.6298853663       -0.2740194413        0.5799700212
 C          2.4868867724       -0.8302498638       -0.6363124954
 C          3.1383507381       -2.0948300318       -1.1317520722
 C          4.6731972819       -2.0687148701       -1.2641069963
 C          5.4238622043       -2.6018398645       -0.0376578958
 H          4.7656653798       -3.2765533699        0.5114146098
 H          6.2724359747       -3.1993175684       -0.3769911837
 C          5.9786658796       -1.5406869598        0.9173644401
 H          6.2562114580       -2.0401622280        1.8481568723
 H          6.8887745073       -1.1150923106        0.4885345375
 C          5.0389953671       -0.3789736277        1.2408400116
 H          5.4687136245        0.1876302947        2.0693568758
 H          4.9934831705        0.3050702242        0.3901139129
 C          3.5993401723       -0.7966050801        1.5991847996
 H          3.5193271731       -1.8798770870        1.6835250340
 H          3.3098856096       -0.3592285169        2.5572848125
 H          5.0007567946       -1.0569435999       -1.5011928900
 H          4.9264984819       -2.6995857078       -2.1174965978
 H          2.8438164722       -2.9177028149       -0.4757496026
 H          2.7020760602       -2.2815259422       -2.1150532844
 O          1.6581077710       -0.3115015567       -1.5832886340
 C          0.8973322928        0.8244890920       -1.3373513461
 O          0.1727880769        1.1699457120       -2.2879653269
 H         -1.0496208527        0.6715131389        1.4523192452
 C         -1.7437119515        1.2333493083        0.8436032922
 C         -1.2884027433        2.3216510441        0.1073711762
 C         -2.2025494310        3.0399160785       -0.6518615199
 C         -3.5349470956        2.6660014107       -0.6808389945
 C         -3.9809244018        1.5754486050        0.0417283421
 C         -3.0762438626        0.8551310747        0.8147181300
 N         -3.5098462775       -0.2381089064        1.5866007296
 S         -2.6615767225       -1.6767972600        1.5647164017
 O         -3.5628469710       -2.6296727807        2.1760999695
 O         -1.3788921232       -1.5164595456        2.2001528992
 C         -2.4621866202       -2.0611612271       -0.1629195054
 C         -3.5410524285       -2.5768704876       -0.8549120515
 C         -3.4097164606       -2.8219634915       -2.2116245949
 C         -2.2116712906       -2.5398802500       -2.8513147274
 C         -1.1377821289       -2.0252749185       -2.1422498657
 C         -1.2633180310       -1.7826097571       -0.7839438259
 H         -0.4508418131       -1.3814129685       -0.1977943903
 H         -0.2086264240       -1.7890901967       -2.6360535611
 H         -2.1105801107       -2.7221007797       -3.9095552879
 H         -4.2399418449       -3.2268717017       -2.7675434159
 H         -4.4507253082       -2.7914216324       -0.3177568711
 H         -4.5017607775       -0.4182323221        1.5212902102
 H         -5.0200931096        1.2848385103        0.0176653955
 H         -4.2344137022        3.2298810325       -1.2788140852
 H         -1.8723935797        3.8908049994       -1.2240481443
 C          0.1775951378        2.6696113747        0.1953566549
 H          0.3984482878        2.9339257109        1.2406076582
 C          0.5910973685        3.8215113644       -0.6959783816
 C          0.3901005444        5.2349871938       -0.2401583138
 C          1.7705795743        4.6553675479       -0.2978623572
 H          2.4441603102        4.9979658645       -1.0690236377
 H          2.2626793662        4.4066405687        0.6313398409
 H          0.1182346745        5.9800555549       -0.9724300139
 H         -0.0544875560        5.3877200548        0.7316343780
 H          0.4706226940        3.5984932377       -1.7499389347
 O          1.9704790549        1.4601326147        2.0621195517
