  62
        -98.94892207
 C         -1.1440337264       -1.6380860247        0.2078911206
 C         -0.3892819364       -2.5426541411       -0.5733526777
 C          1.0017153722       -2.7507922065       -0.1513642689
 C          1.4715066124       -2.0863104717        0.9200809017
 C          2.8665373830       -2.2107795725        1.4599342455
 C          3.8060164065       -1.1534414179        0.8673272151
 C          3.7393288881       -1.0420182008       -0.6559344237
 H          2.7647525080       -0.6442769505       -0.9521963532
 H          4.4835582291       -0.3014474674       -0.9600950064
 C          4.0044839828       -2.3571366291       -1.4023964980
 H          4.6662120862       -2.1491623380       -2.2460585359
 H          4.5237075649       -3.0578626833       -0.7468687754
 C          2.7552711455       -3.0283370969       -1.9765151907
 H          3.0771409629       -3.7939836468       -2.6880446367
 H          2.1708912835       -2.2893067275       -2.5319260720
 C          1.8324858720       -3.7086768242       -0.9569815597
 H          1.1217987918       -4.3283106393       -1.5120514778
 H          2.4194848266       -4.3597293339       -0.3054890841
 H          3.5402338369       -0.1829836661        1.2897214815
 H          4.8274738611       -1.3936524960        1.1692317619
 H          2.8247864109       -2.0770826757        2.5423741332
 H          3.2419551576       -3.2089415246        1.2416311532
 O          0.7231683279       -1.2077202323        1.6347458090
 C         -0.5957614676       -0.9495842545        1.2902771330
 O         -1.1611520224       -0.1099112240        2.0145024479
 O         -0.8614213059       -3.1562835418       -1.5702737712
 C         -2.5824235800       -1.3499507002       -0.1773397318
 C         -2.7780039181        0.1232484895       -0.4404787907
 C         -3.9660265527        0.7904241471       -0.1652819832
 C         -4.0807919258        2.1470799037       -0.4154410220
 C         -3.0141796899        2.8708372041       -0.9172640751
 C         -1.8220214158        2.2104820442       -1.1979310251
 C         -1.7267371765        0.8447161202       -0.9883417576
 H         -0.8019679385        0.3430435054       -1.2278609667
 N         -0.7092775637        2.9118270858       -1.6887122124
 S          0.8628417600        2.4818850262       -1.3575391893
 O          1.6442993500        3.5680845152       -1.9122110201
 O          1.1577349065        1.1741498469       -1.8912785229
 C          1.1222740053        2.4727562761        0.4120686991
 C          0.1138637980        2.6609818277        1.3331789744
 C          0.4329663751        2.6534333616        2.6831404669
 C          1.7435702832        2.4693642443        3.0885702168
 C          2.7493489337        2.2935902043        2.1503323158
 C          2.4360356932        2.2928160033        0.8017498090
 H          3.1834188442        2.1559739663        0.0357666537
 H          3.7719414421        2.1557681827        2.4652313629
 H          1.9831597869        2.4600223792        4.1402485263
 H         -0.3538554751        2.7780606514        3.4090050940
 H         -0.9085852021        2.7859534249        1.0177409900
 H         -0.8131681636        3.9146083642       -1.7342798626
 H         -3.0959067171        3.9337052265       -1.0859189213
 H         -5.0092419051        2.6531910123       -0.1992653532
 H         -4.7997885546        0.2488384815        0.2506099370
 H         -2.7505540054       -1.8954796532       -1.1187076311
 C         -3.5301694807       -1.8906234662        0.8753102096
 C         -4.8693554709       -2.4410779195        0.4876585751
 C         -3.7789232529       -3.3671642475        0.9325387388
 H         -3.8613996336       -3.8401794038        1.8994706645
 H         -3.2895471148       -3.9785162699        0.1881954804
 H         -5.7048950571       -2.2808870920        1.1524384953
 H         -5.1295196067       -2.4365968420       -0.5601882581
 H         -3.4456657677       -1.3604583227        1.8173246549
