  62
        -98.93177131
 C          2.4136304137       -0.5929730577       -0.4639543875
 C          3.2192414456       -0.3559105566        0.6742544605
 C          4.3644966011        0.5655036219        0.4972421353
 C          4.5570600046        1.1493912189       -0.6989948063
 C          5.6627583076        2.0817667440       -1.1169015502
 C          6.9909165222        1.3487996082       -1.3672500506
 C          7.3524801509        0.2974221615       -0.3212153328
 H          6.5509861302       -0.4414204668       -0.2639249574
 H          8.2483696645       -0.2233530872       -0.6697836968
 C          7.6424460219        0.8416271880        1.0755156104
 H          7.9653994036       -0.0016496700        1.6914655146
 H          8.4736823963        1.5480418633        1.0187509515
 C          6.4713237395        1.5256598614        1.7837110438
 H          6.3106807613        2.5281378400        1.3964867982
 H          6.7504249294        1.6407562245        2.8352347652
 C          5.1656600412        0.7369606495        1.7657702367
 H          4.4768623602        1.1887752794        2.4897459799
 H          5.3536111416       -0.2749258211        2.1425029691
 H          7.7881879205        2.0911489174       -1.4315055977
 H          6.9205527656        0.8445875739       -2.3342478878
 H          5.3421757620        2.5484495625       -2.0509333433
 H          5.7868507217        2.8690046975       -0.3793914787
 O          3.7349347260        0.9127371067       -1.7621978024
 C          2.6650872984        0.0480036639       -1.6791129550
 O          2.0178831463       -0.0748212920       -2.7399206755
 O          3.0213871643       -0.8802030374        1.7999040909
 C          1.2233161417       -1.5378896863       -0.4634624769
 C         -0.0288674605       -0.8250790737       -0.0225158435
 C         -0.0839684472       -0.1359869815        1.1851136429
 C         -1.2477678813        0.5017301429        1.5742620262
 C         -2.3744953702        0.4707838165        0.7708377675
 C         -2.3291865915       -0.2098279754       -0.4378623756
 C         -1.1601989319       -0.8526986022       -0.8246008133
 H         -1.1256868617       -1.3730770754       -1.7728757399
 N         -3.4699167982       -0.2344600607       -1.2600333390
 S         -4.9053180861       -0.7914584622       -0.5843259981
 O         -4.6477595763       -1.7163784065        0.4948605701
 O         -5.6767818015       -1.2978828935       -1.6980499913
 C         -5.6874894153        0.6788522193        0.0440330812
 C         -6.0112484481        1.6795162723       -0.8511099919
 C         -6.6235453973        2.8286405522       -0.3770112684
 C         -6.9025251429        2.9557772863        0.9757465596
 C         -6.5754434599        1.9399896737        1.8609466646
 C         -5.9620402666        0.7881929940        1.3932085289
 H         -5.6872912559       -0.0263031646        2.0445324934
 H         -6.7947620264        2.0399655533        2.9118622116
 H         -7.3789630139        3.8513844637        1.3420535343
 H         -6.8810262676        3.6201509930       -1.0622777615
 H         -5.7843850768        1.5386705389       -1.8947131471
 H         -3.3119631795       -0.6661700499       -2.1593624142
 H         -3.2819392557        0.9696117818        1.0695508518
 H         -1.2780286581        1.0308681515        2.5147004335
 H          0.7931442997       -0.1130888961        1.8138942759
 H          1.0861978485       -1.8184335422       -1.5202306912
 C          1.4828374017       -2.8252130707        0.3082595231
 C          0.7988477864       -3.1902985422        1.5876077047
 C          0.4439894823       -3.9080372578        0.3224440491
 H          0.7591104150       -4.9327943066        0.1961559873
 H         -0.5145790083       -3.6834241176       -0.1227811647
 H          1.3827441691       -3.7062406179        2.3343030085
 H          0.0766230424       -2.5038176519        1.9997620669
 H          2.5142627634       -3.1488570715        0.2112982795
