  62
        -98.93453255
 C         -2.3436920346       -0.7643218339       -0.1097485671
 C         -3.5341133796       -1.1359949996        0.5555595124
 C         -4.7880810428       -0.5848990063        0.0132529754
 C         -4.7346439508        0.2154313613       -1.0658430141
 C         -5.8801505027        0.9163740139       -1.7426504219
 C         -6.0493925620        2.3416260325       -1.1894517219
 C         -6.9352366986        2.4503115485        0.0510845752
 H         -6.8637698984        3.4788642742        0.4120762051
 H         -7.9746183211        2.2745827982       -0.2339029980
 C         -6.5756443003        1.5008822246        1.1969338979
 H         -5.4920277453        1.4736261367        1.3254285644
 H         -6.9995850428        1.9095933968        2.1162669116
 C         -7.1136022028        0.0768426955        0.9922036266
 H         -7.8354860194        0.0829382272        0.1758433186
 H         -7.6589579510       -0.2354492454        1.8852106763
 C         -6.0462179493       -0.9958152388        0.7289749753
 H         -5.6991310826       -1.4058405878        1.6826936653
 H         -6.5027863714       -1.8268435607        0.1811044491
 H         -5.0536745677        2.7342846830       -0.9676812100
 H         -6.4820687474        2.9709673215       -1.9697287480
 H         -5.6206645020        0.9828326889       -2.8012219809
 H         -6.7968345823        0.3431349847       -1.6415467034
 O         -3.5640279403        0.5465111224       -1.6785347061
 C         -2.3448496319        0.0773315670       -1.2214346923
 O         -1.3623161625        0.4714708731       -1.8777334311
 O         -3.5492236629       -1.8884100005        1.5677908179
 C         -1.0183129573       -1.2995760557        0.3990635996
 C         -0.0970268112       -0.1621579868        0.7643989604
 C         -0.5651882373        0.8327825287        1.6200262309
 C          0.2457734494        1.8880081626        1.9880568244
 C          1.5470522068        1.9677942881        1.5233312035
 C          2.0240907862        0.9815768698        0.6690888973
 C          1.2037129598       -0.0750619189        0.2964282815
 H          1.6023630146       -0.8244508692       -0.3662210129
 N          3.3307237146        1.0483098029        0.1599750967
 S          4.1795365007       -0.3888505674       -0.0885332646
 O          3.8086427164       -0.9432042081       -1.3659655330
 O          4.0260342130       -1.2590460631        1.0556386978
 C          5.8474206834        0.2384679012       -0.1680239449
 C          6.6528252700        0.1730939794        0.9532676730
 C          7.9368437432        0.6910920586        0.8876557627
 C          8.3901197474        1.2651614969       -0.2904862079
 C          7.5704035258        1.3228336682       -1.4080546271
 C          6.2859885128        0.8058449474       -1.3497123420
 H          5.6166365408        0.8202986787       -2.1942073328
 H          7.9272260738        1.7671212596       -2.3232116640
 H          9.3896666643        1.6673948331       -0.3394015914
 H          8.5775225866        0.6448553688        1.7535071924
 H          6.2602092270       -0.2894969441        1.8444715683
 H          3.8989501077        1.7441571867        0.6232060400
 H          2.1831474854        2.7906048906        1.8123465023
 H         -0.1339647457        2.6522368142        2.6496252517
 H         -1.5792493779        0.7652229372        1.9907726322
 H         -1.2583610307       -1.8514936586        1.3206903700
 C         -0.4192896348       -2.2658317506       -0.6005290327
 C          0.5279668592       -3.3324588757       -0.1415387764
 C         -0.8548948102       -3.6990920037       -0.5873090819
 H         -0.9749581628       -4.2100698268       -1.5307442401
 H         -1.5736675661       -3.9914610247        0.1642171911
 H          1.3646214921       -3.5843276297       -0.7765382965
 H          0.7551885220       -3.3778946917        0.9131550783
 H         -0.2372520889       -1.8068902811       -1.5667161539
