  62
        -98.94314721
 C         -1.8841474649       -1.1625222673        0.3436752449
 C         -2.4388482660       -0.1555848979        1.1756784535
 C         -3.8444172007        0.1920242066        0.9318614051
 C         -4.5234028097       -0.4586148369       -0.0301818040
 C         -5.9431024371       -0.1726995100       -0.4235868701
 C         -6.0084508848        0.8674082466       -1.5506138784
 C         -5.1628660802        2.1141569042       -1.2904073139
 H         -4.1064235848        1.8351927852       -1.2840825654
 H         -5.3106566162        2.7897942467       -2.1356897494
 C         -5.4995462342        2.8485287784        0.0149597032
 H         -5.5481344112        3.9203173320       -0.1887360286
 H         -6.4839557739        2.5413833590        0.3699736916
 C         -4.4751710246        2.6552723899        1.1349138323
 H         -4.6911779824        3.3822165017        1.9226266887
 H         -3.4723554675        2.8727770171        0.7574044898
 C         -4.4533329635        1.2670410621        1.7872123611
 H         -5.4635079072        0.9893415463        2.0952852206
 H         -3.8262723029        1.3304096148        2.6815021651
 H         -7.0511642989        1.1566158388       -1.6934738760
 H         -5.6548096326        0.4012591451       -2.4730386436
 H         -6.3968082763       -1.1019313789       -0.7721207933
 H         -6.4907051001        0.1837368004        0.4466823252
 O         -3.9684669015       -1.4327493188       -0.7913225967
 C         -2.6387665951       -1.8032944085       -0.6398385109
 O         -2.2821399738       -2.7021173052       -1.4240979735
 O         -1.7884816396        0.4211856664        2.0892251630
 C         -0.4215260785       -1.5161269770        0.5638445407
 C          0.4248830770       -0.8978895189       -0.5232959028
 C          0.5506218709       -1.4744494503       -1.7833509164
 C          1.3088033577       -0.8582281458       -2.7617963039
 C          1.9726103651        0.3276571033       -2.5007170261
 C          1.8533414631        0.9128189170       -1.2463389880
 C          1.0787846822        0.3010382196       -0.2704068082
 H          0.9795751658        0.7778960300        0.6938954300
 N          2.5207091259        2.1160246831       -0.9468324079
 S          3.5028512805        2.1511879155        0.4097523339
 O          2.7028743176        2.1520908982        1.6066341535
 O          4.3622589282        3.2974494884        0.2111645145
 C          4.4512575317        0.6455723199        0.2913395506
 C          4.0189231218       -0.4868172728        0.9512397276
 C          4.7181017840       -1.6707207434        0.7764298621
 C          5.8300717712       -1.7012928500       -0.0507297654
 C          6.2557469639       -0.5534402226       -0.7019418853
 C          5.5578301199        0.6314437191       -0.5353462643
 H          5.8587420673        1.5481856694       -1.0161912941
 H          7.1244655334       -0.5795855991       -1.3398237950
 H          6.3685838229       -2.6259381055       -0.1855139241
 H          4.3895650665       -2.5644071898        1.2827619143
 H          3.1524600901       -0.4194091139        1.5891673994
 H          3.0107048428        2.5148282614       -1.7354374960
 H          2.5700824816        0.8035929195       -3.2636366424
 H          1.3904688932       -1.3113619318       -3.7380228795
 H          0.0223885146       -2.3884794090       -2.0006306580
 H         -0.1536894044       -1.0264685149        1.5104079986
 C         -0.1848349544       -3.0052833361        0.7104500495
 C          1.0731221450       -3.4761352621        1.3740245209
 C         -0.2435550890       -3.6213634325        2.0746966342
 H         -0.6714986518       -4.6074209312        2.1757724269
 H         -0.4532882385       -2.9683965379        2.9097917304
 H          1.5549433762       -4.3638435597        0.9948439110
 H          1.7541655581       -2.7209776917        1.7363588199
 H         -0.5753103362       -3.5914078165       -0.1106114678
