  62
        -98.94480477
 C         -1.9830209565       -0.9389438878       -0.4297081152
 C         -3.0536814057       -1.2436994056        0.4481806836
 C         -4.3476431114       -0.6377059284        0.1188237416
 C         -4.4584365711        0.1491252125       -0.9669030276
 C         -5.7143060035        0.8259780817       -1.4448956282
 C         -6.0056702606        2.1629437981       -0.7495410837
 C         -6.4823663745        2.0531618296        0.6993614140
 H         -6.8547921870        3.0378834373        0.9888130046
 H         -7.3220282248        1.3594229527        0.7528633824
 C         -5.3939702362        1.6258371835        1.6940505164
 H         -4.4097769324        1.7682490461        1.2412655882
 H         -5.4347872463        2.2686901861        2.5762929825
 C         -5.5116790787        0.1813161473        2.1803982233
 H         -4.6720089557       -0.0238628632        2.8491375787
 H         -6.4345575796        0.0615009230        2.7521690058
 C         -5.4920113106       -0.8663092170        1.0595611113
 H         -6.4377692553       -0.8560666323        0.5183670287
 H         -5.3580297258       -1.8512612064        1.5133433594
 H         -5.1061712277        2.7817355215       -0.7914071524
 H         -6.7830535922        2.6679559989       -1.3276449543
 H         -6.5642406565        0.1550670348       -1.3169632368
 H         -5.5783531544        1.0158485296       -2.5118176915
 O         -3.4094461180        0.4107596244       -1.7901038378
 C         -2.1451450805       -0.1030709907       -1.5345133523
 O         -1.2812376700        0.2468023889       -2.3615047286
 O         -2.9324122087       -1.9890336422        1.4559890516
 C         -0.6128093604       -1.5138097829       -0.1112130500
 C          0.2894721787       -0.3842488971        0.3176133994
 C          0.1753329928        0.1231645196        1.6090468910
 C          0.9663498949        1.1761384114        2.0288305524
 C          1.8873805290        1.7479429477        1.1680205119
 C          2.0018173774        1.2538090182       -0.1237877130
 C          1.2151461696        0.1884423330       -0.5404747124
 H          1.3072752394       -0.1758002862       -1.5512990163
 N          2.9507133772        1.8240717758       -0.9981659759
 S          4.5419175586        1.7436612000       -0.4774556023
 O          4.7696686275        2.7580247725        0.5205710124
 O          5.3504749973        1.8343496061       -1.6724032053
 C          4.6752616736        0.1236162936        0.2571239227
 C          4.6626035241       -0.0100129509        1.6304088203
 C          4.6776330278       -1.2825276051        2.1788964575
 C          4.6992572131       -2.3923969433        1.3489625729
 C          4.7141456265       -2.2412852462       -0.0292697745
 C          4.6974090580       -0.9719352426       -0.5830856217
 H          4.7139587942       -0.8146569013       -1.6497338577
 H          4.7327010068       -3.1071891738       -0.6714060349
 H          4.7053334722       -3.3822423560        1.7775787365
 H          4.6668011370       -1.4035102794        3.2501142383
 H          4.6456347407        0.8787936560        2.2392166897
 H          2.8731168828        1.4769272166       -1.9435546359
 H          2.5180152810        2.5668827387        1.4746668977
 H          0.8665161710        1.5565634922        3.0340296389
 H         -0.5498306157       -0.3181934060        2.2784897567
 H         -0.7709841262       -2.1691244740        0.7559829350
 C         -0.0537343772       -2.3382018305       -1.2518420498
 C          1.1565634289       -3.1898012392       -1.0121806152
 C         -0.1832328445       -3.8300021851       -1.2129903097
 H         -0.3725143232       -4.3537305237       -2.1380837085
 H         -0.6761761293       -4.2663965619       -0.3568810538
 H          1.8890750252       -3.2756406316       -1.8000298847
 H          1.5771301270       -3.1857077333       -0.0180673473
 H         -0.1535912044       -1.8576457135       -2.2176993747
