  62
        -98.94801844
 C         -1.2723880490       -1.0336297604       -0.0038261779
 C         -1.6316614093        0.0549787399        0.8255028115
 C         -2.6774319697        0.9442411392        0.3055749411
 C         -3.1726081997        0.7244898884       -0.9260504387
 C         -4.2661180401        1.5291228776       -1.5658403091
 C         -5.6480602398        0.9309095073       -1.2669361286
 C         -5.8808360996        0.6216075081        0.2118353716
 H         -5.2010058693       -0.1761009715        0.5194035720
 H         -6.8971452694        0.2333211878        0.3064431319
 C         -5.7045482699        1.8259223987        1.1471686809
 H         -6.5319897799        1.8402814188        1.8596398809
 H         -5.7552135303        2.7517326483        0.5729592503
 C         -4.4124902898        1.8089361396        1.9659374608
 H         -4.3114886495        0.8442670599        2.4694704413
 H         -4.4905322700        2.5766190300        2.7403309403
 C         -3.1218410900        2.0808676696        1.1823872205
 H         -2.3162033400        2.2327385303        1.9071315103
 H         -3.2286181004        2.9978164792        0.5984774100
 H         -5.7515693395        0.0017876069       -1.8320544281
 H         -6.4089556901        1.6296936168       -1.6192309390
 H         -4.1041364102        1.5294233070       -2.6452538191
 H         -4.2140333604        2.5540795778       -1.2029531897
 O         -2.7574485894       -0.2942020020       -1.7214036782
 C         -1.8007526091       -1.1993982614       -1.2836365777
 O         -1.5137344489       -2.0838063218       -2.1126814072
 O         -1.0987010893        0.2727346308        1.9479227314
 C         -0.2119229286       -2.0044766298        0.4787756626
 C          1.0204709013       -1.9272208299       -0.3895038675
 C          1.7918387016       -3.0338308398       -0.7227199670
 C          2.9312798515       -2.8845759099       -1.4945389272
 C          3.3425706710       -1.6360150900       -1.9247468079
 C          2.5809617707       -0.5220817100       -1.5908242985
 C          1.4291144708       -0.6790170100       -0.8378507983
 H          0.8307987205        0.1903756399       -0.6137223888
 N          2.9580161902        0.7685224899       -1.9923080793
 S          2.6982737898        2.0523946804       -0.9515378900
 O          1.3056642897        2.4254205299       -0.9458968301
 O          3.6191864194        3.0713534804       -1.4101704707
 C          3.2164133602        1.4491492415        0.6458414403
 C          4.5700741203        1.2338402921        0.8252530403
 C          5.0163747406        0.7152824129        2.0288959605
 C          4.1041108607        0.4151729532        3.0296861108
 C          2.7509805007        0.6420259826        2.8366526908
 C          2.2977902204        1.1643502718        1.6346830205
 H          1.2467834903        1.3407678913        1.4658416905
 H          2.0331906808        0.4115391528        3.6079168610
 H          4.4484867910        0.0047277539        3.9657855210
 H          6.0694779306        0.5435272834        2.1824455406
 H          5.2478381501        1.4903347918        0.0272514701
 H          3.8551906201        0.8287965799       -2.4505910994
 H          4.2353512709       -1.5220210700       -2.5199727481
 H          3.5148897918       -3.7538903498       -1.7564514367
 H          1.4967541120       -4.0137521197       -0.3852780664
 H          0.0701117213       -1.6494116891        1.4824387424
 C         -0.7787311781       -3.4038179199        0.6002504235
 C         -0.2731324977       -4.3368493591        1.6587571940
 C         -1.6386766479       -3.7332040495        1.7827034537
 H         -2.5015418377       -4.3647597799        1.6334854942
 H         -1.7905441081       -2.9546332792        2.5162645333
 H         -0.1999794274       -5.3885733492        1.4263405646
 H          0.5007680122       -3.9736300485        2.3178114737
 H         -1.0660233281       -3.8196793806       -0.3587959663
