  62
        -98.94075361
 C          2.0121636557        1.3347040178        0.3699370469
 C          2.4964183784        0.6326636235       -0.7618342493
 C          3.7055758559       -0.1784534854       -0.5427629472
 C          4.2631957457       -0.2250014663        0.6798993153
 C          5.4604904295       -1.0510183729        1.0490365098
 C          5.0419072509       -2.4370922771        1.5591865901
 C          4.0358810430       -3.1500067233        0.6551764619
 H          3.0932576792       -2.5972896962        0.6622056298
 H          3.8361657373       -4.1283351431        1.0980174404
 C          4.5032922027       -3.3313640905       -0.7957758359
 H          4.2745517609       -4.3513391915       -1.1118573572
 H          5.5855333857       -3.2094472913       -0.8539695402
 C          3.8327783861       -2.3930620441       -1.8012101112
 H          2.7468514088       -2.4435261098       -1.6838257580
 H          4.0680790034       -2.7499609420       -2.8074570172
 C          4.2577652963       -0.9210284500       -1.7267882953
 H          3.8572279854       -0.4169734854       -2.6112483645
 H          5.3470807342       -0.8503536616       -1.7538689859
 H          4.5915702652       -2.3212112687        2.5478555250
 H          5.9376678960       -3.0517471647        1.6643260219
 H          6.1077723521       -1.1521068651        0.1801701243
 H          6.0061545122       -0.5326606180        1.8394028105
 O          3.7562916172        0.4427641685        1.7478176291
 C          2.6127377111        1.2157111107        1.6256078649
 O          2.2290212044        1.7323307709        2.6943930803
 H         -0.2284184508       -0.1704536166        0.9461329821
 C         -0.7188390243        0.2166791284        0.0604844580
 C         -0.3267866890        1.4530115730       -0.4405117419
 C         -0.9660502312        1.9407609333       -1.5716806412
 C         -1.9507685108        1.1944751132       -2.1964626296
 C         -2.3233560107       -0.0433065800       -1.7075142855
 C         -1.6982415851       -0.5355394085       -0.5681989596
 N         -2.0774996088       -1.7879654712       -0.0556620368
 S         -3.7115611221       -2.1338335401        0.0415029398
 O         -3.8336202784       -3.0785285665        1.1299487699
 O         -4.1904857649       -2.5877609552       -1.2402499539
 C         -4.4939408210       -0.5868238818        0.4640942103
 C         -4.1236129451        0.0274497882        1.6441230798
 C         -4.6946689839        1.2456071209        1.9737962785
 C         -5.6222835940        1.8259054936        1.1219126493
 C         -5.9882263566        1.1937863160       -0.0560221230
 C         -5.4182330364       -0.0239005489       -0.3919046771
 H         -5.6713602363       -0.5482049466       -1.2989229933
 H         -6.7114264074        1.6463331393       -0.7150434667
 H         -6.0621234228        2.7761630383        1.3803156513
 H         -4.4110555216        1.7381559678        2.8901307908
 H         -3.4034295475       -0.4519922957        2.2880217670
 H         -1.5938066346       -2.0524242876        0.7892907505
 H         -3.0728345989       -0.6443857834       -2.1963211382
 H         -2.4296680795        1.5796714614       -3.0835984087
 H         -0.6741417873        2.8924150747       -1.9833193640
 C          0.7607132580        2.1938522619        0.2990953736
 H          0.4355443135        2.3028087040        1.3472182023
 C          0.9977210199        3.6026623986       -0.2242900896
 C          2.3311516633        4.2697162413       -0.0699098256
 C          1.8407938344        3.8814127359       -1.4307961223
 H          1.5278043669        4.6666343649       -2.1035212073
 H          2.2992353054        3.0401197857       -1.9252360106
 H          3.1322498631        3.6937213582        0.3706990163
 H          2.3528733281        5.3168097366        0.1926356181
 H          0.1282948557        4.2367783693       -0.0810574445
 O          1.9598792858        0.6706518508       -1.8980837549
