  62
        -98.94855560
 C          1.5865657561        1.0839854441        0.8554836683
 C          2.5605159509        0.5106191214        0.0027781990
 C          2.9674467617       -0.8611315171        0.3290866388
 C          2.3990577142       -1.5015267274        1.3659465493
 C          2.6854862184       -2.9125894901        1.8012945946
 C          1.9013273533       -3.9648903885        1.0047369998
 C          2.4065375138       -4.2125417769       -0.4173805139
 H          3.4840102185       -4.3827147106       -0.3984963326
 H          1.9354190762       -5.1334658909       -0.7671891800
 C          2.0745646772       -3.0878615226       -1.4083686262
 H          1.2665448736       -2.4726282486       -1.0041324200
 H          1.6989544870       -3.5239737119       -2.3378460968
 C          3.2582559916       -2.1925235829       -1.7763827405
 H          3.9995541357       -2.7755646148       -2.3286773171
 H          2.8929811779       -1.3991615939       -2.4338905237
 C          3.9531433372       -1.5315466769       -0.5796596692
 H          4.5373448760       -2.2689106414       -0.0293989684
 H          4.6284219163       -0.7616213410       -0.9618344450
 H          0.8521049439       -3.6607455245        0.9619583544
 H          1.9573411426       -4.9052633001        1.5586195477
 H          3.7542687322       -3.1152421455        1.7252307487
 H          2.3905996470       -2.9827295518        2.8505825332
 O          1.4743106974       -0.9136936507        2.1683973354
 C          1.0191011584        0.3680185534        1.9088207101
 O          0.1225175975        0.7581460778        2.6865974558
 H         -0.9539550752        0.7726260616        0.0621302911
 C         -0.7123667419        1.3196515389       -0.8354745135
 C          0.2688294628        2.3029329682       -0.7786051957
 C          0.5637916590        3.0173508065       -1.9301421815
 C         -0.0808931803        2.7121540882       -3.1180407700
 C         -1.0043617936        1.6857818759       -3.1852487712
 C         -1.3210844329        0.9771815007       -2.0291883701
 N         -2.2539594781       -0.0659407598       -2.0564398318
 S         -2.2764189928       -1.2975094050       -0.9239853863
 O         -0.9657874753       -1.6007875908       -0.4015999823
 O         -2.9529456059       -2.3812904979       -1.6070663512
 C         -3.3618406621       -0.6644740391        0.3373563495
 C         -4.6811517005       -0.4586472948       -0.0206295136
 C         -5.5648603956        0.0394187153        0.9214138270
 C         -5.1173467668        0.3232736435        2.2036203268
 C         -3.7928662763        0.1079060716        2.5487004132
 C         -2.9031882749       -0.3926511636        1.6094309363
 H         -1.8651475294       -0.5566085489        1.8574992086
 H         -3.4346451323        0.3298535055        3.5413605349
 H         -5.8031484333        0.7136641015        2.9389560226
 H         -6.5963664858        0.2057295598        0.6558150483
 H         -4.9879921631       -0.7029889080       -1.0239509822
 H         -2.5369644998       -0.3745779949       -2.9738134204
 H         -1.4734447580        1.4262242508       -4.1219857087
 H          0.1604526820        3.2665369346       -4.0124582535
 H          1.3114524248        3.7927939456       -1.9064221129
 C          0.9987937389        2.4510073363        0.5356594749
 H          0.2598450978        2.6594163074        1.3223513252
 C          2.0518136999        3.5357119685        0.5460327976
 C          1.6462806488        4.9640416564        0.7485771563
 C          2.3696041641        4.2288340844        1.8355532122
 H          3.3973620597        4.4880758796        2.0406261355
 H          1.8124053565        3.9298093653        2.7115693880
 H          2.1784450655        5.7326670388        0.2090517328
 H          0.5957940070        5.1694226192        0.8884822437
 H          2.8765393058        3.3262406035       -0.1242188150
 O          3.0686658332        1.1058907615       -0.9835086994
