  62
        -98.94433471
 C          2.2733967712        1.0575533854        0.2666778845
 C          2.4365951898       -0.0799874147       -0.5605517922
 C          3.3907628006       -1.0889313194       -0.0801360868
 C          4.0073856492       -0.9276722161        1.1037746296
 C          4.9820938402       -1.8828473020        1.7370017143
 C          6.4255760357       -1.7231060116        1.2399132102
 C          6.6845160727       -2.2242218518       -0.1814811434
 H          7.7673316175       -2.2546628988       -0.3177157972
 H          6.3155803553       -3.2458314234       -0.2780911237
 C          6.0732861346       -1.3474746915       -1.2833136664
 H          5.8213307433       -0.3676273217       -0.8713599356
 H          6.8126817202       -1.1834272111       -2.0703651264
 C          4.8297204442       -1.9389678290       -1.9470735859
 H          4.4585518453       -1.2203509276       -2.6821566230
 H          5.0975425974       -2.8554210964       -2.4776153724
 C          3.6857515311       -2.2553472905       -0.9747915194
 H          2.7854323462       -2.4644876396       -1.5581443668
 H          3.9279962370       -3.1372928958       -0.3821015392
 H          7.0680719803       -2.2839230043        1.9225463799
 H          6.7044036403       -0.6693046085        1.3112586488
 H          4.9627411654       -1.6790423930        2.8098140441
 H          4.6497470972       -2.9084034610        1.5729459005
 O          3.7887677477        0.1557651583        1.8943380433
 C          2.9437019684        1.1736664443        1.4896263698
 O          2.8706083452        2.1228316554        2.2953764080
 H         -0.2366326284        0.4399034130       -1.3551369236
 C         -0.7535675513        0.9374692677       -0.5481654277
 C         -0.0777303993        1.8820628035        0.2107884573
 C         -0.7448890316        2.4831520668        1.2720338618
 C         -2.0565509623        2.1487393779        1.5590950748
 C         -2.7283299954        1.2097410093        0.7966772041
 C         -2.0654546675        0.5930990686       -0.2561225050
 N         -2.7336481660       -0.3684013868       -1.0352153653
 S         -3.5372761657       -1.6056572016       -0.2345559143
 O         -2.9346151923       -1.8916429701        1.0476676282
 O         -3.5910773732       -2.7006296839       -1.1787232348
 C         -5.1821621365       -0.9600674947       -0.0082697695
 C         -5.8532326228       -0.4855639608       -1.1184384582
 C         -7.1367378194        0.0125551445       -0.9621895163
 C         -7.7260157057        0.0243652933        0.2933933295
 C         -7.0409302639       -0.4595916971        1.3972508794
 C         -5.7558348672       -0.9579666696        1.2479960963
 H         -5.1823171732       -1.3382457375        2.0784445759
 H         -7.5004550118       -0.4502117454        2.3725757893
 H         -8.7250982064        0.4129409065        0.4123258851
 H         -7.6724368251        0.3898713810       -1.8182973069
 H         -5.3609239598       -0.5151976899       -2.0760364735
 H         -2.1609493835       -0.7413617711       -1.7795496368
 H         -3.7483918118        0.9416579871        1.0187333501
 H         -2.5619419334        2.6238958511        2.3860739568
 H         -0.2195932388        3.2026452402        1.8835360709
 C          1.3626179009        2.2251374658       -0.0866200453
 H          1.6563223167        3.0400891917        0.5881677422
 C          1.5421353686        2.6997929029       -1.5154716177
 C          1.1042256711        4.0851853594       -1.8794293461
 C          2.5642559673        3.7534882428       -1.8124501877
 H          3.1228965374        3.6836311202       -2.7338030621
 H          3.1386316120        4.1404790425       -0.9830526678
 H          0.6575010582        4.2460140445       -2.8484465143
 H          0.6885858877        4.6993376133       -1.0950052459
 H          1.4099556997        1.9185529627       -2.2518710343
 O          1.8325027161       -0.2704562281       -1.6507616134
