  62
        -98.93752844
 C         -2.0630703032       -1.4978626592        0.1995505657
 C         -1.6650883930       -0.4729600469       -0.6932728161
 C         -2.6422210381        0.6121035375       -0.9176358282
 C         -3.8299513348        0.5750071038       -0.2919562923
 C         -4.9279879337        1.5993672856       -0.3574879243
 C         -4.8092751733        2.5945419589        0.8090880630
 C         -3.8875183433        3.7851266509        0.5472645828
 H         -4.3662493088        4.4583082344       -0.1670841113
 H         -3.7841651761        4.3282445934        1.4894048254
 C         -2.4907067466        3.4329833507        0.0275544196
 H         -1.8360284590        4.2806888728        0.2391818328
 H         -2.1015635473        2.5745766401        0.5786443154
 C         -2.4610879396        3.1515516180       -1.4828283132
 H         -3.3947003056        3.5011383761       -1.9237463698
 H         -1.6648427586        3.7399660357       -1.9441809203
 C         -2.2228513745        1.6856658747       -1.8847749888
 H         -2.7107503594        1.4976815094       -2.8470914220
 H         -1.1528935455        1.5167123297       -2.0420184366
 H         -4.4598448684        2.0425703826        1.6855030994
 H         -5.8033762935        2.9811262012        1.0426872203
 H         -4.9193555066        2.1128281013       -1.3146262804
 H         -5.8699329739        1.0559019495       -0.2571206349
 O         -4.1722457872       -0.4255989898        0.5639130531
 C         -3.3061230782       -1.4648278756        0.8416369143
 O         -3.7487719097       -2.2899733790        1.6649893654
 H          1.0685495055       -2.4686765655       -0.9788840940
 C          1.2316817928       -2.1110979173        0.0254316579
 C          0.2006579768       -2.1646621516        0.9486709618
 C          0.4237738119       -1.6713333964        2.2301425222
 C          1.6552453983       -1.1477489681        2.5801729516
 C          2.6774741457       -1.0752537924        1.6499585188
 C          2.4524843991       -1.5412583459        0.3610566010
 N          3.4552635450       -1.4154317794       -0.6129784247
 S          4.4011119620       -0.0393364243       -0.6168324367
 O          4.7907531805        0.1483535785       -1.9982137163
 O          5.4933538454       -0.2122740211        0.3120416833
 C          3.3927023442        1.3334267165       -0.0717387196
 C          2.0809832694        1.4551057947       -0.4850216252
 C          1.3491914040        2.5526433606       -0.0582992493
 C          1.9333363042        3.5085595467        0.7570240402
 C          3.2536042150        3.3749515564        1.1573983773
 C          3.9893720332        2.2775660926        0.7415426553
 H          5.0146154590        2.1266519265        1.0390311554
 H          3.7093916246        4.1171553399        1.7928836709
 H          1.3548660605        4.3584114399        1.0835575045
 H          0.3189721405        2.6443846046       -0.3621458833
 H          1.6169077166        0.7023736950       -1.1031120712
 H          3.1446256449       -1.6460548159       -1.5455053135
 H          3.6405062926       -0.6605326977        1.9021980146
 H          1.8190067660       -0.7806824494        3.5818296149
 H         -0.3835166649       -1.6980212995        2.9490414758
 C         -1.1664719146       -2.6710197229        0.5665159873
 H         -1.6309353922       -3.1103324152        1.4631111664
 C         -1.1107908454       -3.7768423319       -0.4782400817
 C         -2.3641306378       -4.2312810861       -1.1635530388
 C         -1.2923269888       -3.5360103003       -1.9453804949
 H         -0.7003680170       -4.1223609516       -2.6335240140
 H         -1.4713594074       -2.5259900325       -2.2779797880
 H         -2.5151681686       -5.2889103151       -1.3182529724
 H         -3.2719668226       -3.6874916186       -0.9449923176
 H         -0.4047168264       -4.5535442346       -0.1994189299
 O         -0.5591784226       -0.4403361345       -1.2924905182
