  62
        -98.93801892
 C         -1.9863647649       -1.4214163013        0.3712264050
 C         -2.0957235386       -0.5354053732       -0.7275332679
 C         -2.7228089308        0.7662150231       -0.4453543626
 C         -3.1015978105        1.0548572080        0.8127625579
 C         -3.6442783996        2.3767459030        1.2763236143
 C         -2.4951830082        3.3981375971        1.4035212049
 C         -2.5914841002        4.5747234726        0.4324815657
 H         -3.3684953737        5.2586448170        0.7803833970
 H         -1.6412983579        5.1113287733        0.4716943295
 C         -2.9018193872        4.2120714252       -1.0229817945
 H         -2.6736443822        5.0935446437       -1.6257411228
 H         -3.9714602016        4.0288034083       -1.1349472815
 C         -2.1345671435        3.0121791507       -1.5928247184
 H         -1.8736275373        3.2380545271       -2.6283932860
 H         -1.2010893882        2.8575587626       -1.0528067860
 C         -2.9261550202        1.6919716639       -1.6127737739
 H         -3.9928486787        1.9046409332       -1.7258872262
 H         -2.6102597789        1.1118640599       -2.4846569790
 H         -2.4712288227        3.7936439982        2.4202188788
 H         -1.5509168612        2.8715643840        1.2479582629
 H         -4.1187709306        2.2139877354        2.2442591946
 H         -4.3965233319        2.7318148327        0.5754729989
 O         -2.9468970267        0.1888627278        1.8491583966
 C         -2.3928271622       -1.0655303806        1.6564072620
 O         -2.3068735710       -1.7553451555        2.6939613614
 O         -1.6927777032       -0.8116953588       -1.8864126655
 C         -1.3491446837       -2.7890345411        0.1890520998
 C          0.1044381688       -2.6024907969       -0.1754600161
 C          0.6852976456       -3.0985634625       -1.3337173407
 C          2.0230843372       -2.8591328304       -1.6013069306
 C          2.8079286905       -2.1346346509       -0.7235545917
 C          2.2364607938       -1.6358789860        0.4414153762
 C          0.8953301585       -1.8704967487        0.7029643219
 H          0.4478952917       -1.4841423401        1.6109721259
 N          3.0189896387       -0.9224621944        1.3665869643
 S          4.0419414834        0.2987796417        0.8639365999
 O          5.1106956074       -0.2673831373        0.0807587699
 O          4.4288810376        0.9793695017        2.0784309705
 C          3.0570899489        1.3860281217       -0.1488732005
 C          3.0131353843        1.1987948264       -1.5156031329
 C          2.2327331066        2.0494497956       -2.2823653858
 C          1.5177057947        3.0689257190       -1.6740545635
 C          1.5676789491        3.2400322730       -0.2986986491
 C          2.3397037328        2.3884042618        0.4739769487
 H          2.4161690726        2.4963473827        1.5443432389
 H          1.0105183118        4.0344272060        0.1727824075
 H          0.9198626157        3.7358285202       -2.2748644190
 H          2.1867170319        1.9155834974       -3.3509859288
 H          3.5953837189        0.4064555014       -1.9555781002
 H          2.5096629201       -0.6364634428        2.1897229000
 H          3.8528352049       -1.9532370574       -0.9161673759
 H          2.4626876636       -3.2476587518       -2.5073724053
 H          0.0914110553       -3.6656415579       -2.0307907872
 H         -1.3881372128       -3.2742617097        1.1750787460
 C         -2.1310897358       -3.6286933109       -0.7971755465
 C         -2.0351184746       -5.1229177457       -0.7433670282
 C         -3.2914532695       -4.4360026825       -0.3013877899
 H         -4.1697552791       -4.5129630004       -0.9245690659
 H         -3.5101972696       -4.3967961491        0.7561267692
 H         -2.0531148068       -5.6758746834       -1.6702003027
 H         -1.4007585356       -5.5556958499        0.0155085519
 H         -2.2316539786       -3.1554276353       -1.7663132566
