  62
        -98.94588950
 C          1.0846122971        1.2827644769       -0.0500715739
 C          1.7540018745        0.5639634251        0.9750394780
 C          2.5704917875       -0.5807895174        0.5522326017
 C          2.6098702616       -0.9083848076       -0.7517055440
 C          3.4166358477       -2.0340479859       -1.3300150051
 C          4.8072260088       -1.5540127177       -1.7683671352
 C          5.5381856097       -0.7315144609       -0.7069605869
 H          6.5178119837       -0.4728383004       -1.1146246054
 H          4.9986847342        0.2053607670       -0.5497781849
 C          5.7166637078       -1.4467579596        0.6395881331
 H          5.5789731597       -2.5206749772        0.5089369198
 H          6.7410398513       -1.2909048107        0.9842873387
 C          4.7920568682       -0.9476699011        1.7514653884
 H          4.8559546223        0.1411993590        1.8187682482
 H          5.1515348301       -1.3558065744        2.6997053197
 C          3.3141450375       -1.3369159572        1.6181153027
 H          2.8221067795       -1.0860992637        2.5627598645
 H          3.2333153094       -2.4143314506        1.4576507981
 H          4.6938768204       -0.9366341189       -2.6626887497
 H          5.4064920407       -2.4272086279       -2.0328601147
 H          3.5105807963       -2.8250325821       -0.5882378563
 H          2.8845470028       -2.4257291809       -2.1991021212
 O          1.9440264430       -0.2115897220       -1.7056751073
 C          1.1789765994        0.9079300193       -1.3918184278
 O          0.6648748680        1.4477202359       -2.3900653151
 O          1.6741041432        0.8725621129        2.1938508528
 C          0.2442465661        2.4610381011        0.4069135208
 C         -1.1878022523        2.0535987033        0.6680851684
 C         -1.8329731421        2.4588801239        1.8312129303
 C         -3.1483401052        2.1046518297        2.0688328118
 C         -3.8371572742        1.3198916930        1.1619329755
 C         -3.2001846082        0.9040902868       -0.0013080328
 C         -1.8882653328        1.2831252423       -0.2489151758
 H         -1.4179942179        0.9677888793       -1.1674381144
 N         -3.8668189841        0.0846411754       -0.9314556793
 S         -3.0943449847       -1.3165600405       -1.4280664824
 O         -2.0674276776       -1.0206474819       -2.3916430057
 O         -4.1678632856       -2.1733764221       -1.8863141434
 C         -2.3854017235       -1.9775570188        0.0686248186
 C         -1.0427378842       -1.7972703233        0.3278966117
 C         -0.5251252458       -2.2517384149        1.5304507979
 C         -1.3564937602       -2.8751894843        2.4476389546
 C         -2.7031414678       -3.0563731383        2.1696139829
 C         -3.2262449064       -2.5994918076        0.9714439886
 H         -4.2645456063       -2.7283725401        0.7121100544
 H         -3.3443565852       -3.5470137567        2.8838589328
 H         -0.9479801663       -3.2219305621        3.3835527043
 H          0.5205680017       -2.1001784711        1.7452920247
 H         -0.4247711173       -1.3069432960       -0.4082677308
 H         -4.8254149551       -0.1178268502       -0.6833030299
 H         -4.8595801913        1.0293838227        1.3490512927
 H         -3.6378115760        2.4294883081        2.9739069782
 H         -1.2915940608        3.0472900075        2.5565504964
 H          0.6780368778        2.7691907992        1.3686372725
 C          0.2720717147        3.6522676536       -0.5310013032
 C          0.0157417816        5.0227520985        0.0174278757
 C          1.3931885341        4.6410981046       -0.4332687338
 H          1.7808658149        5.0689422522       -1.3454672836
 H          2.1468092504        4.4680782152        0.3213421620
 H         -0.5483412537        5.7180736711       -0.5848329547
 H         -0.1601364330        5.1159073849        1.0780863742
 H         -0.1062496382        3.4261280785       -1.5195861941
