  62
        -98.94305165
 C         -0.4036001089       -2.0845686022        0.2526165634
 C         -1.1205413251       -1.3543643993        1.2293963039
 C         -2.4622697213       -0.8981877163        0.8443097235
 C         -2.9443538335       -1.2290700763       -0.3670744921
 C         -4.2371444065       -0.7367580130       -0.9516938373
 C         -4.0453477682        0.6967411153       -1.4899195328
 C         -4.8521799737        1.7641424082       -0.7493443351
 H         -4.4691335460        2.7352402371       -1.0710089586
 H         -5.8980561315        1.6998147219       -1.0587144905
 C         -4.8085707275        1.6937300932        0.7802904896
 H         -5.1783601790        2.6512202091        1.1534688545
 H         -5.5059479051        0.9312561550        1.1316118399
 C         -3.4298237736        1.4228552513        1.3966731286
 H         -2.6395426379        1.7222415131        0.7051739558
 H         -3.3260843467        2.0444434816        2.2889697586
 C         -3.2057609389       -0.0400211938        1.8290134742
 H         -2.5931235702       -0.0509426523        2.7355617653
 H         -4.1653791067       -0.5029306265        2.0742617316
 H         -2.9827164342        0.9492951361       -1.4419277218
 H         -4.3240458204        0.7297114057       -2.5448000882
 H         -4.5078260298       -1.4126653633       -1.7633677468
 H         -5.0209251175       -0.7625835085       -0.1978190121
 O         -2.2560863975       -1.9970195851       -1.2505291521
 C         -0.9503711254       -2.3918688335       -0.9926743330
 O         -0.4063040454       -3.0057954561       -1.9305160750
 O         -0.6461415201       -1.0718774358        2.3636073459
 C          1.0568803162       -2.4022108892        0.5101538391
 C          1.9255614006       -1.5919691103       -0.4259355980
 C          3.1492966203       -2.0376734362       -0.9105988729
 C          3.8971503756       -1.2383902596       -1.7586888528
 C          3.4541118073        0.0169620238       -2.1351641818
 C          2.2322743081        0.4733950201       -1.6531962671
 C          1.4921734917       -0.3278386965       -0.8002369823
 H          0.5367297532        0.0297851297       -0.4527295901
 N          1.7212087576        1.7229902157       -2.0245026905
 S          0.6671841727        2.5635119829       -1.0419241316
 O         -0.6264870138        1.9274599461       -1.0127631722
 O          0.6924403828        3.9084009679       -1.5773929074
 C          1.4275687092        2.5508019614        0.5706469155
 C          0.8363951634        1.8911322127        1.6270951452
 C          1.4844073689        1.8695787520        2.8522728039
 C          2.7045989132        2.5089548360        3.0004776086
 C          3.2816560031        3.1793271189        1.9317217525
 C          2.6406439499        3.1994604445        0.7046378943
 H          3.0533642159        3.7172954080       -0.1458394227
 H          4.2287287008        3.6803342784        2.0512393033
 H          3.2071007271        2.4854809504        3.9545737593
 H          1.0292557107        1.3374209490        3.6723318795
 H         -0.1089785624        1.3910196821        1.4886066801
 H          2.3476910391        2.3239252412       -2.5371397772
 H          4.0362747589        0.6315130079       -2.8042153733
 H          4.8422018249       -1.5998827600       -2.1345386489
 H          3.5116272464       -3.0140569354       -0.6331172069
 H          1.2540182712       -2.0540028014        1.5360768541
 C          1.3295657775       -3.8899121531        0.4425025213
 C          2.3778171419       -4.5089880456        1.3171376960
 C          0.9269651304       -4.7503023491        1.6017885781
 H          0.5128131539       -5.7265374182        1.3996011291
 H          0.4827222869       -4.2562308254        2.4536257599
 H          2.9625227360       -5.3254486809        0.9207880939
 H          2.9206544358       -3.8587056340        1.9864073834
 H          1.1861907426       -4.2935731632       -0.5531267449
