  62
        -98.94625911
 C         -2.3927884596       -0.5062113016       -0.0127363287
 C         -1.4005751693       -0.7161257603        0.9723658313
 C         -0.7263390483       -2.0198072998        0.9471388119
 C         -1.0760911777       -2.9192239206        0.0099665024
 C         -0.3867728868       -4.2313657002       -0.2326138170
 C          0.9216518229       -3.9845377696       -1.0126873373
 C          2.1944782133       -4.3326535083       -0.2398963173
 H          2.3112311641       -5.4186927082       -0.2158359567
 H          3.0344985829       -3.9201968779       -0.8034744876
 C          2.2610078631       -3.8185308475        1.2014965225
 H          1.6874464137       -4.4804186676        1.8525669229
 H          3.3032800732       -3.8937358565        1.5185066124
 C          1.7824702220       -2.3768679377        1.4172567618
 H          1.8539391715       -1.8062288081        0.4901400915
 H          2.4486851917       -1.8977846968        2.1382779114
 C          0.3488390020       -2.2590463985        1.9700902719
 H          0.1058669927       -3.1481595284        2.5584204324
 H          0.3010640214       -1.3949209682        2.6388191514
 H          0.9540391921       -2.9329511797       -1.3095336078
 H          0.9113483033       -4.5680480801       -1.9352340170
 H         -1.0643331264       -4.8560742010       -0.8153702366
 H         -0.1823396563       -4.7249950196        0.7149226632
 O         -2.0600711880       -2.6958512718       -0.8998701276
 C         -2.7191614190       -1.4784999923       -0.9548122181
 O         -3.5639521691       -1.3872475434       -1.8705949381
 O         -1.0807331698        0.1562807103        1.8239003608
 C         -3.0518891806        0.8568873678       -0.1268705993
 C         -1.9785662014        1.9093786286       -0.2788917300
 C         -2.0110223623        3.1404413689        0.3639246294
 C         -0.9695260230        4.0396758796        0.2089291788
 C          0.1327256472        3.7235152700       -0.5643385712
 C          0.1679403480        2.4993596997       -1.2223325106
 C         -0.8976521613        1.6229929690       -1.1033444800
 H         -0.8586067107        0.6786706087       -1.6267987595
 N          1.2716884282        2.1164178901       -2.0120058405
 S          2.1161186293        0.7367340010       -1.5727678099
 O          3.1896039693        0.6368683313       -2.5387541600
 O          1.2240167102       -0.3912335596       -1.4981611192
 C          2.8074533192        1.1183200923        0.0273717598
 C          4.1478565490        1.4463833234        0.1026506895
 C          4.6874956389        1.7941796644        1.3300197892
 C          3.8783926590        1.8171655044        2.4562863293
 C          2.5347157392        1.4906613433        2.3618837397
 C          1.9873086593        1.1375914223        1.1375562499
 H          0.9451034895        0.8729471115        1.0515429102
 H          1.8970220993        1.5050814033        3.2313223997
 H          4.2961557089        2.0901116052        3.4126041191
 H          5.7329723287        2.0468759253        1.4039367590
 H          4.7367326989        1.4120811834       -0.7997670606
 H          1.9315246676        2.8638299405       -2.1794490110
 H          0.9584870066        4.4124832506       -0.6594191316
 H         -1.0074715136        4.9917986298        0.7157606383
 H         -2.8484551624        3.3924363186        0.9938652194
 H         -3.6507104507        0.8326053569       -1.0494684692
 C         -3.9731349306        1.1041817678        1.0499037907
 C         -5.2013724313        1.9471329868        0.8872246104
 C         -5.3271567602        0.4631158967        1.0515496212
 H         -5.7134867198        0.0751763169        1.9820278514
 H         -5.5929184398       -0.1298309539        0.1881334915
 H         -5.5069275317        2.5781772169        1.7081546001
 H         -5.3965980917        2.3647818461       -0.0889989098
 H         -3.4392368806        1.1485415686        1.9920725306
