  62
        -98.94309076
 C         -1.4730733165       -1.1182854739       -0.0370739962
 C         -2.4972934380       -0.6429627460        0.8113628383
 C         -2.9831438372        0.7213190652        0.5498123292
 C         -2.4268733089        1.4402899787       -0.4405855703
 C         -2.7123038940        2.8661193177       -0.8422794683
 C         -4.1773657577        3.3207073820       -0.8712585181
 C         -5.1823828697        2.2369230651       -1.2881276952
 H         -5.8158336729        2.6286096048       -2.0860235402
 H         -4.6518680514        1.3706514003       -1.6867694704
 C         -6.0923486021        1.7935673201       -0.1403900803
 H         -6.9852856616        1.3249400498       -0.5607978287
 H         -6.4161050245        2.6784599829        0.4117346776
 C         -5.4744006642        0.7939029412        0.8362633395
 H         -5.3501334219       -0.1751896441        0.3455642150
 H         -6.1780390093        0.6485542696        1.6594484865
 C         -4.1104353973        1.1958580764        1.4216244499
 H         -4.0561060841        2.2670180181        1.6017264912
 H         -3.9881109924        0.6785211741        2.3774704736
 H         -4.4575753760        3.7097137936        0.1066073027
 H         -4.2325052064        4.1579833935       -1.5691505839
 H         -2.1420911000        3.5188509568       -0.1738538272
 H         -2.2764324252        2.9721658256       -1.8388742435
 O         -1.4412537953        0.9414308884       -1.2371398058
 C         -0.9297421268       -0.3288640039       -1.0478807238
 O         -0.0151338532       -0.6390881312       -1.8368105224
 H          0.4068236416       -0.6171991040        1.5897700080
 C          1.0924990758       -1.3344734291        1.1623075004
 C          0.6050274537       -2.3931589184        0.4063804473
 C          1.5143962594       -3.3035772262       -0.1178897756
 C          2.8735240409       -3.1370228258        0.0867142606
 C          3.3555728313       -2.0515873323        0.7950222232
 C          2.4528401193       -1.1418922684        1.3326815065
 N          2.8855997622       -0.0006739917        2.0427294858
 S          2.5503548067        1.4844878604        1.3371283966
 O          3.1532066201        2.4622886645        2.2185561568
 O          1.1342736226        1.6166755520        1.1125221576
 C          3.4524992535        1.4467016343       -0.2017345032
 C          2.9213036202        0.7794947273       -1.2870959354
 C          3.6758379568        0.6945503706       -2.4480462009
 C          4.9358075061        1.2693350645       -2.5037524031
 C          5.4538801818        1.9359894870       -1.4032256403
 C          4.7091728739        2.0214354750       -0.2386383495
 H          5.0672514090        2.5317390935        0.6410467604
 H          6.4329247530        2.3851446424       -1.4484303313
 H          5.5152993204        1.1980630486       -3.4106773656
 H          3.2641983971        0.1748724601       -3.2984147403
 H          1.9356788055        0.3432342999       -1.2294607755
 H          3.8655854491       -0.0278998052        2.2918222895
 H          4.4166157998       -1.9050874452        0.9305345686
 H          3.5672058965       -3.8518823592       -0.3285953597
 H          1.1584898540       -4.1417744624       -0.6943942661
 C         -0.8863050323       -2.4972167197        0.1997566631
 H         -1.3439436306       -2.8562481591        1.1341983421
 C         -1.2717024190       -3.4369449450       -0.9247521576
 C         -1.4656152327       -4.8997594627       -0.6610154376
 C         -2.6502994820       -4.0240507310       -0.9336107721
 H         -3.1630752227       -4.1239258254       -1.8785032186
 H         -3.3003079881       -3.7678784401       -0.1095719935
 H         -1.3187481019       -5.2499254241        0.3494893537
 H         -1.1673098204       -5.6048382608       -1.4221970222
 H         -0.8488948128       -3.1372319260       -1.8773847203
 O         -2.9745498659       -1.3237578403        1.7607378550
