  62
        -98.94054912
 C          1.4879398949        1.2271961931        0.1524776742
 C          2.5480997653        0.7499849805        0.9587298213
 C          3.1004754606       -0.5729298862        0.6230415996
 C          2.5540096166       -1.2778767924       -0.3849126895
 C          2.8561082277       -2.6667731340       -0.9077986775
 C          4.1464190593       -3.3850918890       -0.5213177591
 C          5.4227015174       -2.7505266486       -1.0730680534
 H          6.2776081157       -3.2874552960       -0.6564960339
 H          5.4382911659       -2.8883590725       -2.1570462245
 C          5.5895456358       -1.2587865411       -0.7953932351
 H          4.7937000221       -0.7024797737       -1.2948594391
 H          6.5352926994       -0.9393389084       -1.2412707034
 C          5.6167983915       -0.8677642893        0.6809991001
 H          6.3786647956       -1.4507134820        1.2019131572
 H          5.9050820707        0.1853962020        0.7372979951
 C          4.2827839550       -1.0215596926        1.4329750415
 H          4.1400740718       -2.0405624656        1.7860011622
 H          4.3133803093       -0.3733733702        2.3139574270
 H          4.0743106823       -4.3952901513       -0.9336588902
 H          4.2083515777       -3.4909679776        0.5578713059
 H          2.0060050072       -3.2843772310       -0.5951621652
 H          2.7997538993       -2.5940568741       -1.9987801955
 O          1.5075060504       -0.7940945855       -1.1119743763
 C          0.9400112593        0.4428852285       -0.8608941527
 O         -0.0183944042        0.7170353148       -1.6083828908
 H         -0.5032097337        0.7029345466        1.7997259419
 C         -1.1633305204        1.3871849955        1.2853939704
 C         -0.6312075926        2.4390940519        0.5484534152
 C         -1.5067837564        3.2980027122       -0.1027087021
 C         -2.8747649403        3.0954603885       -0.0295893415
 C         -3.3960077531        2.0218650510        0.6679169967
 C         -2.5269621130        1.1564281939        1.3222905910
 N         -2.9956483974        0.0173577699        2.0150845786
 S         -2.6067953747       -1.4620637230        1.3237493880
 O         -3.2095033234       -2.4546221637        2.1889640617
 O         -1.1818706279       -1.5587606701        1.1398559346
 C         -3.4691879689       -1.4459850376       -0.2382801280
 C         -2.9301867216       -0.7569717329       -1.3061442760
 C         -3.6598531062       -0.6840064433       -2.4839119304
 C         -4.9024641549       -1.2914921667       -2.5729767254
 C         -5.4281119477       -1.9799221921       -1.4895393917
 C         -4.7089195680       -2.0536573647       -0.3082304133
 H         -5.0742943665       -2.5783373019        0.5599671879
 H         -6.3935851750       -2.4544243251       -1.5605784353
 H         -5.4630417703       -1.2282129763       -3.4923218368
 H         -3.2443331031       -0.1466884585       -3.3213010764
 H         -1.9582852036       -0.2948502958       -1.2204569524
 H         -3.9908276543        0.0371387219        2.1958502294
 H         -4.4609496150        1.8467150163        0.7015106657
 H         -3.5418924693        3.7713991975       -0.5422321572
 H         -1.1198515323        4.1168323188       -0.6864648152
 C          0.8712404214        2.5688591714        0.5053262273
 H          1.2219626355        2.7662291720        1.5330208571
 C          1.3583312569        3.7296982010       -0.3496269280
 C          2.6629684708        3.6570730158       -1.0837270826
 C          1.3740424735        3.6608311779       -1.8464591073
 H          1.1133188866        4.5483532247       -2.4042151471
 H          1.0437337033        2.7414630671       -2.3034733334
 H          3.2204097190        2.7333067944       -1.0248359292
 H          3.2839923417        4.5399231493       -1.1121891750
 H          1.1146477136        4.6909959314        0.0920716005
 O          3.0093207502        1.4002770986        1.9365654373
