  62
        -98.94096324
 C          1.0901668678        1.4772602018        0.0515851113
 C          1.5440228233        0.5052135146        0.9737274875
 C          2.4836376367       -0.5104192170        0.4675446108
 C          2.8169548529       -0.5009074003       -0.8366806237
 C          3.7377576761       -1.3910913129       -1.6461811676
 C          4.5956201355       -2.4499739777       -0.9595924347
 C          5.7671735357       -1.8852318876       -0.1545254092
 H          6.2223443878       -2.6996898101        0.4127779452
 H          6.5170098410       -1.5106093835       -0.8559326109
 C          5.4239800097       -0.7435741937        0.7993417010
 H          5.0069797587        0.0936703908        0.2363635855
 H          6.3559781789       -0.3945015639        1.2521529317
 C          4.4661318706       -1.1052328918        1.9317708555
 H          4.4058994245       -0.2438574912        2.6027407355
 H          4.8709724418       -1.9437058138        2.5021055149
 C          3.0356694977       -1.4575745080        1.4944634740
 H          2.9757191840       -2.4854958973        1.1473531885
 H          2.3843189640       -1.3699007104        2.3688684566
 H          5.0137537445       -3.0781769659       -1.7506722613
 H          3.9783229711       -3.0943029085       -0.3404884885
 H          4.3900955739       -0.7159223714       -2.2098218929
 H          3.0996070467       -1.8815456381       -2.3891450744
 O          2.2741431056        0.3983028670       -1.7082185766
 C          1.4086731552        1.4005370653       -1.3030727458
 O          1.0111378600        2.1295623669       -2.2301013175
 O          1.1809573967        0.4873781282        2.1812928365
 C          0.1690243768        2.5748232725        0.5607056398
 C         -1.2373272260        2.2349785665        0.1363665381
 C         -1.8842255597        2.8350541086       -0.9356424943
 C         -3.1510490583        2.4185942315       -1.3102184233
 C         -3.7985856723        1.4061947237       -0.6248669908
 C         -3.1575908750        0.8010611866        0.4486354528
 C         -1.8891089891        1.2153664419        0.8211968269
 H         -1.3828106060        0.7338910667        1.6481025846
 N         -3.8066211685       -0.2480277548        1.1422827490
 S         -3.9439475108       -1.6851108479        0.2954249886
 O         -4.7139104636       -1.4461559937       -0.8976007699
 O         -4.4861677625       -2.6442719879        1.2297471229
 C         -2.2722275746       -2.1372524265       -0.1339128998
 C         -1.6086472853       -3.0627453354        0.6461513644
 C         -0.2996012886       -3.3886310253        0.3323381915
 C          0.3234441729       -2.7771950220       -0.7440971621
 C         -0.3509973644       -1.8376788319       -1.5082802202
 C         -1.6623150433       -1.5114638444       -1.2030493665
 H         -2.2153234680       -0.7901738561       -1.7832440219
 H          0.1393499191       -1.3484701992       -2.3358952979
 H          1.3407426001       -3.0337769994       -0.9918189214
 H          0.2308262793       -4.1148870551        0.9268828451
 H         -2.1336422166       -3.5180343316        1.4706235046
 H         -3.3835887654       -0.4419807475        2.0400982536
 H         -4.7767979884        1.0601677003       -0.9162957461
 H         -3.6409143944        2.8897331433       -2.1489872779
 H         -1.3877746431        3.6142926577       -1.4898341554
 H          0.2127782059        2.5034369509        1.6563112071
 C          0.6238459537        3.9566520551        0.1459528357
 C          0.0614363339        5.1524819845        0.8527646411
 C          1.4877285463        4.7516957946        1.0767635960
 H          2.2693036668        5.3657344636        0.6550925008
 H          1.7496318675        4.3035235264        2.0242080987
 H         -0.1384597645        6.0445684792        0.2793525545
 H         -0.6466976091        4.9734113058        1.6477796717
 H          0.8300009872        4.0432502478       -0.9132986284
