  62
        -98.93497092
 C          2.1851001723       -1.0923749945       -0.5820310661
 C          2.1655106424       -0.1677446871        0.4896609600
 C          3.0325868358        1.0194507654        0.3450188172
 C          3.7334216558        1.1897892152       -0.7884304067
 C          4.7082183011        2.2880405052       -1.1122513582
 C          6.1423504627        1.8670183822       -0.7485241509
 C          6.5538535552        2.1593327683        0.6938404033
 H          7.5323682110        1.7001148840        0.8517027644
 H          6.6732059503        3.2372877954        0.8210571229
 C          5.5906574592        1.6444736424        1.7665271372
 H          5.2600086731        0.6361083361        1.5112106062
 H          6.1418797362        1.5752589786        2.7062059387
 C          4.3719502073        2.5566367460        1.9722495040
 H          4.5478747660        3.5070690165        1.4686887590
 H          4.2656863511        2.7852317264        3.0347223787
 C          3.0296195467        1.9692744275        1.5118025513
 H          2.5800388616        1.4000110765        2.3318492973
 H          2.3355007463        2.7880444213        1.2911141773
 H          6.8378428322        2.3868322776       -1.4104579849
 H          6.2382683692        0.7968910946       -0.9496444599
 H          4.4292506042        3.2109968828       -0.6125741295
 H          4.6540225744        2.4426693476       -2.1920313516
 O          3.6726148495        0.3066279463       -1.8237103916
 C          2.9031538128       -0.8399264276       -1.7528025131
 O          2.9293278754       -1.5389328849       -2.7859057912
 O          1.4715385707       -0.3148626196        1.5284134459
 C          1.3475422098       -2.3603492200       -0.5609822641
 C         -0.0521186819       -2.0387018759       -0.0968371713
 C         -0.6520254687       -2.6107051378        1.0163522160
 C         -1.9363191434       -2.2465274972        1.3820464986
 C         -2.6491382876       -1.3156794971        0.6492484409
 C         -2.0564898090       -0.7334201848       -0.4636990209
 C         -0.7727656014       -1.1041168802       -0.8308781052
 H         -0.3072590272       -0.6449316302       -1.6958561448
 N         -2.7748761829        0.2069299127       -1.2247562153
 S         -3.5054099192        1.4899430414       -0.4230791705
 O         -3.6246582497        2.5319683304       -1.4208861989
 O         -2.8018774564        1.8392484073        0.7889006507
 C         -5.1301010257        0.8722282900       -0.0359732600
 C         -5.9134058777        0.4067428153       -1.0740089152
 C         -7.1813206876       -0.0753143454       -0.7911285432
 C         -7.6429228379       -0.0810453663        0.5168704657
 C         -6.8459892262        0.3939094387        1.5471853926
 C         -5.5761056348        0.8768464131        1.2710749264
 H         -4.9181488841        1.2502604795        2.0398054228
 H         -7.2065573492        0.3894454455        2.5632606153
 H         -8.6298205871       -0.4576670823        0.7346266978
 H         -7.8041281148       -0.4449046251       -1.5897405014
 H         -5.5179510004        0.4325919814       -2.0756389994
 H         -2.2674577030        0.5435475821       -2.0305461790
 H         -3.6468037060       -1.0262766071        0.9361668536
 H         -2.3880674771       -2.6924179970        2.2550394138
 H         -0.1041902496       -3.3192262521        1.6152839938
 H          1.2842750956       -2.6721088585       -1.6170769399
 C          1.9848701439       -3.5188736321        0.1911609105
 C          3.4754005167       -3.6483482079        0.2830115843
 C          2.6727330043       -3.3425686423        1.5100066934
 H          2.5607432862       -4.1187433310        2.2529648065
 H          2.7155452821       -2.3473087989        1.9224885780
 H          3.9120972275       -4.6305769784        0.1821287072
 H          4.0734099529       -2.8592474410       -0.1499255319
 H          1.4329504746       -4.4428001530        0.0486381502
