  62
        -98.94024599
 C         -2.7903894999       -0.9248517403        0.2200238901
 C         -2.4324923999       -0.1747730502       -0.9266160099
 C         -2.7885881201        1.2522706997       -0.9015070598
 C         -3.4811638401        1.7498076496        0.1401373003
 C         -3.9653551002        3.1617783296        0.3822301304
 C         -3.1382425803        4.3448800297       -0.1260393296
 C         -1.6840014803        4.3857837697        0.3402436504
 H         -1.2280751403        5.2868770098       -0.0764034495
 H         -1.6581158203        4.4745413197        1.4292077904
 C         -0.8266981702        3.1821816698       -0.0542738997
 H          0.2180626798        3.4093506199        0.1821938403
 H         -1.0991889301        2.3171779398        0.5564897103
 C         -0.8891575102        2.7809540999       -1.5296463597
 H         -0.0719210001        2.0735337900       -1.6981442598
 H         -0.7033168002        3.6570690200       -2.1536859996
 C         -2.2019017801        2.1055510599       -1.9851074197
 H         -2.9292902302        2.8353590598       -2.3345521797
 H         -1.9676455601        1.4397124099       -2.8198857898
 H         -3.1698331203        4.3926246797       -1.2107642696
 H         -3.6298857003        5.2469167296        0.2480627805
 H         -4.9682943602        3.2361029495       -0.0515456596
 H         -4.0819467702        3.2460827795        1.4663518604
 O         -3.9073551500        0.9589661395        1.1665887602
 C         -3.5192780399       -0.3692311004        1.2673198201
 O         -3.8778710498       -0.9320022405        2.3221932701
 H         -0.6088481199       -0.5471146702        1.4242365001
 C         -0.0648191098       -1.2764549102        0.8340569300
 C         -0.7631547198       -2.3113968702        0.2236934600
 C         -0.0454435297       -3.2388326201       -0.5192345001
 C          1.3248473903       -3.1071270000       -0.6703769201
 C          2.0076720702       -2.0530969200       -0.0917640400
 C          1.3015447301       -1.1287032701        0.6666003600
 N          1.9818143801       -0.0400522200        1.2509935601
 S          2.7562603600        1.0043186401        0.1780371501
 O          2.7851608599        2.2862629000        0.8490901002
 O          2.1503150200        0.9744574501       -1.1313911299
 C          4.4099304000        0.3496517602        0.0993496601
 C          4.9273952200       -0.0653148597       -1.1117703700
 C          6.2155202501       -0.5765152696       -1.1500020300
 C          6.9584022401       -0.6631725196        0.0174481300
 C          6.4244400501       -0.2402167297        1.2258107400
 C          5.1380665401        0.2729024102        1.2705330701
 H          4.6864324500        0.6166439801        2.1861047701
 H          7.0053383001       -0.3094369897        2.1313486000
 H          7.9597087901       -1.0626727795       -0.0147295501
 H          6.6320578201       -0.9053823195       -2.0884888900
 H          4.3090606400        0.0164186603       -1.9915539699
 H          1.3943927600        0.5005418999        1.8708284601
 H          3.0705198702       -1.9338554899       -0.2267152000
 H          1.8669740103       -3.8304816899       -1.2601299301
 H         -0.5621571597       -4.0551638401       -0.9968975501
 C         -2.2673400498       -2.3415438903        0.3739866000
 H         -2.5133417297       -2.6530934904        1.3998812300
 C         -2.9514993697       -3.2775669203       -0.5996364400
 C         -3.1441422896       -4.7225015703       -0.2522558101
 C         -4.3183085297       -3.7918110204       -0.2649796601
 H         -5.0434759297       -3.8826916204       -1.0595669800
 H         -4.7431003997       -3.4855488305        0.6801331200
 H         -2.7779291096       -5.0603602504        0.7053870098
 H         -3.0670808096       -5.4566816103       -1.0399505702
 H         -2.7521821497       -3.0170211202       -1.6327342400
 O         -1.8260994799       -0.6648989401       -1.9132212699
