  62
        -98.94422295
 C         -1.3146560651       -1.4484895260        0.6267602362
 C         -2.1273593833       -1.0396394763       -0.4605003762
 C         -3.1210823375       -0.0006867329       -0.1601820736
 C         -3.2015577431        0.5192166207        1.0767767543
 C         -4.1470162972        1.5994434445        1.5254955691
 C         -3.6458139692        3.0166209166        1.2138433991
 C         -3.7175987917        3.4248777839       -0.2583230931
 H         -4.7184058632        3.2250887354       -0.6435838310
 H         -3.5618317809        4.5049572211       -0.2966283195
 C         -2.6724388571        2.7491267685       -1.1577068595
 H         -1.8581768490        2.3528855002       -0.5446374871
 H         -2.2233286094        3.4970350123       -1.8163387961
 C         -3.2256553464        1.6372361259       -2.0502466478
 H         -3.9160418175        2.0664051287       -2.7805458517
 H         -2.3895522994        1.1919422787       -2.5958169333
 C         -3.9506780726        0.5149556690       -1.2966586883
 H         -4.9171377037        0.8660784825       -0.9358380856
 H         -4.1136261655       -0.3115954006       -1.9929229045
 H         -2.6131790589        3.1076402573        1.5608383228
 H         -4.2556061502        3.7142633792        1.7930840291
 H         -5.1260744675        1.4481074292        1.0701765326
 H         -4.2460258554        1.4992084161        2.6085824248
 O         -2.4029814553        0.1033799384        2.0950320510
 C         -1.4127234224       -0.8424252968        1.8810425271
 O         -0.6894546207       -1.0560298869        2.8762577471
 H          0.5663058005        0.0760405961       -0.0401489418
 C          0.9697355785       -0.5797521155       -0.7957335100
 C          0.6732775069       -1.9352576542       -0.7447657255
 C          1.1668722451       -2.7565068546       -1.7488864589
 C          1.9246091688       -2.2190771315       -2.7765029337
 C          2.2191621092       -0.8683125862       -2.8198291953
 C          1.7278172186       -0.0382134559       -1.8180633622
 N          1.9792549412        1.3413193921       -1.8146676158
 S          2.0979358722        2.1605324772       -0.3645253929
 O          0.7980949484        2.3364738783        0.2335739708
 O          2.8033163424        3.3785755151       -0.7031660375
 C          3.1389063713        1.1312298684        0.6563406819
 C          2.6381298163        0.5058887526        1.7793734624
 C          3.4740014726       -0.3200427582        2.5152697450
 C          4.7890544206       -0.5047993751        2.1192588774
 C          5.2811563754        0.1381453590        0.9931391029
 C          4.4498413126        0.9617389236        0.2530152889
 H          4.7984827086        1.4865292299       -0.6215038673
 H          6.3058659687       -0.0032665966        0.6898290510
 H          5.4327793567       -1.1519918412        2.6936685827
 H          3.0823599214       -0.8173787594        3.3885414315
 H          1.6087613466        0.6588219513        2.0663234093
 H          2.6394112562        1.6684045833       -2.5034540717
 H          2.8063089532       -0.4552738928       -3.6254624280
 H          2.2937676146       -2.8654465626       -3.5582407543
 H          0.9414044920       -3.8102001607       -1.7428083696
 C         -0.1525811830       -2.4078588319        0.4288653343
 H          0.4684541074       -2.2792945178        1.3320519783
 C         -0.5225630767       -3.8820310647        0.3717124185
 C         -1.8289744127       -4.3755540103        0.9167215347
 C         -1.5693523710       -4.4153242845       -0.5578119163
 H         -1.4001211460       -5.3769560768       -1.0202607561
 H         -2.0782744227       -3.7053279406       -1.1894158790
 H         -2.5240275830       -3.6380546535        1.2923799812
 H         -1.8372190320       -5.3043743434        1.4675686041
 H          0.3371165021       -4.5207340852        0.5500128115
 O         -2.0332528241       -1.4999794296       -1.6268605178
