  62
        -98.93430825
 C          2.1819236175        1.3663576983        0.5428816844
 C          2.5704459900        0.5627959990       -0.5531510585
 C          3.1291914393       -0.7704376114       -0.2413117076
 C          3.2425159461       -1.1491098885        1.0440656303
 C          3.7433313848       -2.4564944170        1.5982186403
 C          2.7109838711       -3.5876569665        1.4729880699
 C          2.0039102192       -3.6673972698        0.1224122190
 H          1.2382428393       -4.4452148015        0.1940546722
 H          1.4762657114       -2.7296995342       -0.0682811560
 C          2.9034563771       -4.0095526527       -1.0634751904
 H          3.3828578888       -4.9741426198       -0.8804887037
 H          2.2537279864       -4.1210698704       -1.9357866386
 C          3.9877602390       -2.9856011575       -1.4072428286
 H          4.3691657717       -3.2392820827       -2.4007848340
 H          4.8302326973       -3.0590238335       -0.7249273994
 C          3.4955660926       -1.5443782648       -1.4848252115
 H          4.2552051078       -0.9406222427       -1.9964185554
 H          2.6116710752       -1.5064705771       -2.1330732353
 H          3.2110848117       -4.5354895035        1.6806323895
 H          1.9446094309       -3.4331192735        2.2364095965
 H          4.6792084186       -2.7317635385        1.1211198734
 H          3.9463101149       -2.2880206767        2.6582542623
 O          2.8587420856       -0.3389295874        2.0717271531
 C          2.3044948897        0.9038999713        1.8554171813
 O          1.9768780258        1.5098069665        2.8960082110
 H          0.2566159809        1.2135166379       -1.4205464306
 C         -0.4378620131        1.6711893349       -0.7313861227
 C          0.0403284194        2.5269941640        0.2520735596
 C         -0.8712483378        3.1024627367        1.1283632283
 C         -2.2229540365        2.8175208492        1.0280304911
 C         -2.6888336266        1.9360182071        0.0677038353
 C         -1.7834016001        1.3608398793       -0.8131529318
 N         -2.2383567710        0.3842122571       -1.7433690496
 S         -2.2055643651       -1.1510715019       -1.0350171540
 O         -1.0439036195       -1.3219985925       -0.1897431101
 O         -2.3467763819       -2.0932543620       -2.1239948714
 C         -3.6849997577       -1.1325510207       -0.0493644869
 C         -3.5887173240       -0.9603194564        1.3171012146
 C         -4.7531951062       -0.9001476613        2.0668851773
 C         -5.9847800121       -1.0106299473        1.4392558981
 C         -6.0637240117       -1.1843367773        0.0652393675
 C         -4.9036382329       -1.2438505621       -0.6902063718
 H         -4.9140413575       -1.3800613646       -1.7587832588
 H         -7.0233877708       -1.2703230358       -0.4182872692
 H         -6.8885572395       -0.9610394058        2.0258288119
 H         -4.6927672492       -0.7635965871        3.1346702576
 H         -2.6089689837       -0.8744874043        1.7606365032
 H         -1.6537626425        0.3499875674       -2.5692871239
 H         -3.7357907378        1.6902778812       -0.0047565058
 H         -2.9182870642        3.2719318161        1.7167763841
 H         -0.5099216185        3.7571897900        1.9079082941
 C          1.5260581696        2.7326837902        0.3964769487
 H          1.7020813322        3.2418441343        1.3568634731
 C          2.1418297237        3.5901818897       -0.6996608035
 C          1.3968827503        4.0305403039       -1.9212288233
 C          1.7151105547        5.0213522260       -0.8448703630
 H          2.4689727295        5.7705379480       -1.0326353330
 H          0.8999957771        5.3586238551       -0.2223401793
 H          1.9448912480        4.0741512914       -2.8501521213
 H          0.3709915400        3.7176825996       -2.0375732227
 H          3.1978485855        3.3816085510       -0.8335139461
 O          2.4619627828        0.9135032888       -1.7593470544
