  62
        -98.93663976
 C         -0.6757344892       -1.7284281788        0.0616391370
 C         -1.0358228537       -0.5174983699       -0.5779694120
 C         -2.2906557326        0.0995523332       -0.1164909888
 C         -2.9387904824       -0.4074021494        0.9460348129
 C         -4.1790508535        0.1470623583        1.5947213544
 C         -5.4694380838        0.0867295543        0.7541033447
 C         -5.7617516743        1.3604032328       -0.0484576366
 H         -6.8354892537        1.5561590476       -0.0155473073
 H         -5.2745576172        2.2039511739        0.4416096400
 C         -5.3608085258        1.3261635444       -1.5264514259
 H         -6.1030771266        0.7503374773       -2.0840814371
 H         -5.3891810831        2.3502023290       -1.9048955076
 C         -3.9897683111        0.7226676130       -1.8332452591
 H         -3.7495139594        0.9345829988       -2.8771862167
 H         -4.0398725357       -0.3653107937       -1.7445159187
 C         -2.8484091421        1.2304501591       -0.9298178725
 H         -2.0271103050        1.6107907316       -1.5397023683
 H         -3.2011957970        2.0322364092       -0.2846300694
 H         -5.4342841184       -0.7801959617        0.0947817511
 H         -6.2938689207       -0.0718466820        1.4511816221
 H         -4.3199130236       -0.4419586195        2.5030686172
 H         -3.9892923358        1.1807571295        1.8903828304
 O         -2.4946676770       -1.5110321863        1.6072220304
 C         -1.4012856401       -2.2231932533        1.1506045002
 O         -1.1675263480       -3.2658517453        1.7941976801
 H          1.8408492996       -0.2478800983       -0.8291847524
 C          2.3146072980       -0.8408495091       -0.0629244897
 C          1.7764061663       -2.0691579602        0.2957096878
 C          2.3991380880       -2.8116534681        1.2929645175
 C          3.5376776415       -2.3354273296        1.9175053101
 C          4.0676591156       -1.1072816983        1.5671299597
 C          3.4479254855       -0.3547561747        0.5737211243
 N          3.9637623872        0.8966429189        0.2221542269
 S          3.1218386657        2.0556354550       -0.6164211641
 O          2.9322144054        1.6486316135       -1.9853526498
 O          3.9188899808        3.2531367953       -0.4339218764
 C          1.5507541043        2.3234648293        0.1908116326
 C          0.6389721888        3.0976447306       -0.4975083048
 C         -0.5621358506        3.4265449544        0.1074066052
 C         -0.8390663887        2.9629836216        1.3836083785
 C          0.0815182729        2.1804055652        2.0596889026
 C          1.2948910452        1.8663651695        1.4668272343
 H          2.0194714474        1.2625390763        1.9886980269
 H         -0.1373880410        1.8120647625        3.0495831321
 H         -1.7760195859        3.2134384705        1.8557879282
 H         -1.2769175087        4.0384587995       -0.4191423466
 H          0.8864312079        3.4204077557       -1.4962151828
 H          4.6690161483        1.2816841405        0.8309064545
 H          4.9507366178       -0.7275334653        2.0575847308
 H          4.0127083637       -2.9213480949        2.6895204077
 H          1.9715992798       -3.7586677971        1.5877580386
 C          0.5152366374       -2.5787889427       -0.3574422649
 H          0.3152213719       -3.5812843427        0.0455223816
 C          0.6747079887       -2.6944375147       -1.8597321626
 C          1.4135506289       -3.8714813760       -2.4190070724
 C         -0.0713446376       -3.7658103015       -2.5937794889
 H         -0.4635253415       -3.5406568441       -3.5741979599
 H         -0.7006862577       -4.4248083483       -2.0128663987
 H          2.0457919892       -3.7190434453       -3.2803095913
 H          1.7895448827       -4.6048858930       -1.7215084726
 H          0.7942587088       -1.7424837092       -2.3599545828
 O         -0.3715496492        0.0390905967       -1.4915815074
