  62
        -98.93821441
 C         -2.6729967857       -1.1989742456        0.2249956837
 C         -3.0803580799       -0.2598295524        1.2076149901
 C         -4.2839671427        0.5202287537        0.9051402978
 C         -4.9435854397        0.3026951047       -0.2468606018
 C         -6.2040707436        0.9938713287       -0.6911452103
 C         -5.9670911210        2.3505234758       -1.3685765795
 C         -5.5431787550        3.4810577574       -0.4301481614
 H         -5.6256428878        4.4125940498       -0.9936414953
 H         -6.2438558790        3.5419198737        0.4032119185
 C         -4.1105680979        3.3548621203        0.1068817432
 H         -3.6039641393        4.3189178476        0.0229102618
 H         -3.5512012552        2.6457057273       -0.5077859182
 C         -4.0169536954        2.9208599781        1.5697740456
 H         -2.9599411874        2.8264746157        1.8316527281
 H         -4.4555790232        3.6900186468        2.2094436907
 C         -4.7014775945        1.5825035532        1.8765523974
 H         -4.3933781261        1.2598855997        2.8741586159
 H         -5.7846894310        1.7025133949        1.8666564746
 H         -5.2143009440        2.2238718894       -2.1499897015
 H         -6.9027507134        2.6403911775       -1.8523011322
 H         -6.8707801869        1.1232003250        0.1619721306
 H         -6.6854615199        0.3287732808       -1.4113365000
 O         -4.5333439222       -0.6171720880       -1.1571624945
 C         -3.3801908085       -1.3720368225       -0.9658803666
 O         -3.1257435769       -2.1368673089       -1.9131922379
 O         -2.4676133406       -0.0926768433        2.2967730358
 C         -1.4243807258       -2.0033773713        0.5386406830
 C         -0.1928572160       -1.3167091179        0.0053883932
 C         -0.0975995877       -0.9332959494       -1.3289061066
 C          1.0453998442       -0.3118286974       -1.7979460748
 C          2.1097000243       -0.0536197107       -0.9512297061
 C          2.0241069785       -0.4283806706        0.3824958354
 C          0.8767861909       -1.0582765335        0.8496341396
 H          0.8092484679       -1.3387674460        1.8923442355
 N          3.0906783665       -0.1510729607        1.2511881044
 S          4.6520739026       -0.5304850844        0.7688506070
 O          4.6642095364       -1.6545069386       -0.1378455404
 O          5.3963005336       -0.6879798463        1.9989570511
 C          5.2133845254        0.9383235862       -0.0656074997
 C          5.1129346440        2.1448963856        0.5989681793
 C          5.5586649992        3.2950746239       -0.0322105004
 C          6.0973195461        3.2194803355       -1.3081855928
 C          6.1941505120        2.0000131333       -1.9605837541
 C          5.7490685299        0.8456281052       -1.3351584226
 H          5.7990590909       -0.1231176290       -1.8064785364
 H          6.6133297036        1.9432417258       -2.9523381911
 H          6.4435802060        4.1164901795       -1.7969269061
 H          5.4843507087        4.2453674864        0.4715950621
 H          4.6903693348        2.1618967563        1.5897616742
 H          2.9253832425       -0.4244687375        2.2088672101
 H          3.0005971204        0.4318276032       -1.3147129755
 H          1.1081819533       -0.0225096842       -2.8361259342
 H         -0.9264126209       -1.1335974734       -1.9913227453
 H         -1.3568477746       -1.9869843066        1.6384538390
 C         -1.5221401260       -3.4633416909        0.1188462179
 C         -0.7206842209       -4.0711942161       -0.9886438443
 C         -0.4008446681       -4.4092287102        0.4346776569
 H         -0.6405600285       -5.3948920660        0.8037192373
 H          0.5020411418       -3.9885791164        0.8529035560
 H         -1.2056516649       -4.8120243776       -1.6055700201
 H         -0.0299557921       -3.4432195887       -1.5286058940
 H         -2.5289355362       -3.8493332583        0.2431689102
