  62
        -98.94139309
 C         -1.8131294598       -0.9994287501        0.6841127300
 C         -2.0316811998        0.3898676600        0.8870897195
 C         -3.4030031698        0.8707647500        0.6943830390
 C         -4.3730655797       -0.0023561801        0.3690660490
 C         -5.8297690796        0.3204376000        0.1747936885
 C         -6.1732064892        0.8393453196       -1.2281098918
 C         -5.6995369991        2.2619821095       -1.5282022820
 H         -6.1914888888        2.5750831592       -2.4512956123
 H         -6.0381159793        2.9308356797       -0.7362907923
 C         -4.1809591790        2.3985214193       -1.7073124916
 H         -3.7445882790        1.4125244993       -1.8838639812
 H         -3.9722012787        3.0027733891       -2.5930413718
 C         -3.4586511793        3.0551982296       -0.5307038816
 H         -3.7918472493        4.0903309197       -0.4284506420
 H         -2.3878890393        3.0646801195       -0.7495457813
 C         -3.6606694197        2.3425268000        0.8129784685
 H         -2.9419337599        2.7488477202        1.5285166586
 H         -4.6682951198        2.5230293202        1.1870352382
 H         -5.7543778190        0.1520889093       -1.9668995814
 H         -7.2607200792        0.8121195096       -1.3284435521
 H         -6.3787275797       -0.6087826800        0.3421158786
 H         -6.1456896598        1.0498115102        0.9212540982
 O         -4.1294195497       -1.3263401301        0.1950731594
 C         -2.8510615098       -1.8556774201        0.3158288999
 O         -2.8028600098       -3.0786987602        0.0757513203
 O         -1.1190079299        1.1891052100        1.2263940096
 C         -0.3904308699       -1.4891362701        0.8840147805
 C          0.3691556704       -1.5865655705       -0.4176409992
 C         -0.0563629493       -2.4117242008       -1.4531588791
 C          0.6807509610       -2.5015911311       -2.6196379889
 C          1.8613328811       -1.7940988912       -2.7667363688
 C          2.2959841508       -0.9686456810       -1.7368613989
 C          1.5394895105       -0.8598350706       -0.5784999091
 H          1.8722320003       -0.2035612104        0.2108276108
 N          3.4818552109       -0.2314799510       -1.8537619188
 S          4.4780852505       -0.0261265007       -0.5240252685
 O          5.7787402007        0.2612262191       -1.0900947383
 O          4.4094969802       -1.1568452005        0.3713625418
 C          3.8603681804        1.4391611495        0.2745534809
 C          3.7038307807        2.5821947193       -0.4838271395
 C          3.2400160805        3.7338180195        0.1307029900
 C          2.9444545502        3.7239273299        1.4855026500
 C          3.1116546199        2.5696308601        2.2341870703
 C          3.5749182400        1.4144686199        1.6249371308
 H          3.7131786398        0.4931802501        2.1694239611
 H          2.8783066996        2.5627840404        3.2869033103
 H          2.5796384601        4.6201861001        1.9618589996
 H          3.1075211407        4.6344151094       -0.4470816203
 H          3.9459685809        2.5517195690       -1.5330814894
 H          4.0073784911       -0.3971520713       -2.6995466686
 H          2.4424175913       -1.8791021615       -3.6725864886
 H          0.3396951312       -3.1415333313       -3.4196830788
 H         -0.9676435494       -2.9775279107       -1.3339123392
 H          0.0962708400       -0.7092431399        1.4858861504
 C         -0.2861479402       -2.8031908199        1.6354733409
 C          1.0440498196       -3.2033673298        2.1981293514
 C         -0.0653751906       -2.7889246695        3.1166821910
 H         -0.5480091608       -3.5459491693        3.7165048611
 H          0.0069745993       -1.8269655993        3.6028572807
 H          1.3216317296       -4.2459901698        2.1660712118
 H          1.8757628097       -2.5291637199        2.0522148814
 H         -0.9162079601       -3.5835085400        1.2292805410
