  62
        -98.94947678
 C          1.0677665843        1.7293200270        0.1150594070
 C          1.6969417247        0.9476278344        1.1125564473
 C          2.8419233696        0.1432195452        0.6721530025
 C          3.2191030798        0.1727124481       -0.6190129772
 C          4.3654404177       -0.5919420278       -1.2230971484
 C          4.0198418006       -2.0437954425       -1.5824538363
 C          3.9131348030       -3.0010718583       -0.3945668479
 H          3.9126932795       -4.0143968324       -0.8012666004
 H          4.7986242922       -2.9012407671        0.2348106974
 C          2.6480205688       -2.8154923795        0.4545556588
 H          1.9005383096       -2.2690349661       -0.1268283876
 H          2.2130128950       -3.7940024645        0.6747015099
 C          2.8793582835       -2.1132017104        1.7928635761
 H          1.9139719203       -2.0029366151        2.2926911380
 H          3.5130792500       -2.7397209017        2.4251263935
 C          3.5256637313       -0.7261139826        1.6851123875
 H          3.4355433771       -0.2324022634        2.6562474295
 H          4.5833090543       -0.8252779173        1.4409820995
 H          4.8041158311       -2.4106845533       -2.2491202213
 H          3.0778727036       -2.0534230662       -2.1373193002
 H          4.6398916176       -0.0656880775       -2.1399861163
 H          5.2191093938       -0.5763308201       -0.5442944622
 O          2.5951164403        0.9443356243       -1.5477439453
 C          1.4991416242        1.7272813787       -1.2122241390
 O          1.0158505615        2.3675249328       -2.1656801859
 H         -0.5990437812        0.1648685351       -0.6721886464
 C         -1.4566875270        0.8124717744       -0.7463438853
 C         -1.3872253748        2.1022162730       -0.2436022033
 C         -2.4965891864        2.9277465429       -0.3965456530
 C         -3.6293755404        2.4662307950       -1.0432524803
 C         -3.6929922313        1.1752375857       -1.5374945159
 C         -2.5902060467        0.3424159952       -1.3904357857
 N         -2.5952498871       -0.9675275664       -1.8866804875
 S         -1.6857756957       -2.1672765557       -1.1665957317
 O         -0.2817707143       -1.9706958339       -1.4273508638
 O         -2.2572270107       -3.3936766052       -1.6810871116
 C         -2.0400079800       -2.0263932225        0.5754273312
 C         -3.3077374938       -2.3729511826        1.0025007669
 C         -3.6301725586       -2.2212457861        2.3407749281
 C         -2.6884925138       -1.7167652004        3.2258642585
 C         -1.4194298319       -1.3786493258        2.7838163748
 C         -1.0900998214       -1.5383156249        1.4473803818
 H         -0.1092641939       -1.2810877959        1.0807554965
 H         -0.6800878430       -0.9736569782        3.4572217529
 H         -2.9426934604       -1.5878185780        4.2660808668
 H         -4.6142802292       -2.4900289294        2.6893457032
 H         -4.0097898728       -2.7674979444        0.2861137458
 H         -3.4815570846       -1.3035185421       -2.2310956418
 H         -4.5774858798        0.8190557295       -2.0423855822
 H         -4.4798397090        3.1203296776       -1.1610151655
 H         -2.4683201471        3.9354298206       -0.0148661123
 C         -0.1460397240        2.5540872433        0.4911461374
 H         -0.3053729168        2.3634910142        1.5642704340
 C          0.1303332381        4.0336212180        0.2998485955
 C         -0.4086337497        5.0452067082        1.2657265874
 C          1.0547020853        4.7248053377        1.2560490184
 H          1.7462426815        5.4571059761        0.8673735094
 H          1.4549820086        4.1352135840        2.0680605229
 H         -0.7234595406        6.0045004455        0.8832521820
 H         -0.9947605514        4.6843248377        2.0974989607
 H          0.1983117078        4.3088543528       -0.7466287295
 O          1.3199964719        0.9233237473        2.3157585162
