  62
        -98.93890852
 C         -1.8320337452       -0.9412864064       -0.2090489149
 C         -2.9790124121       -1.0712262041        0.6147242068
 C         -4.2281977326       -0.4375942922        0.1529324810
 C         -4.2181796439        0.2263500885       -1.0175343881
 C         -5.3441932743        0.9746213640       -1.6804858866
 C         -5.6302711247        2.3312339743       -1.0178152285
 C         -5.6650386017        2.3058176158        0.5078526431
 H         -4.7065010967        1.9417706862        0.8823440255
 H         -5.7767968893        3.3367797362        0.8540846159
 C         -6.7963496433        1.4823477401        1.1190218984
 H         -6.7627326882        1.6394296930        2.2001839220
 H         -7.7536553846        1.8650630441        0.7582633589
 C         -6.7435731011       -0.0248354496        0.8582639243
 H         -7.0960670724       -0.2647761442       -0.1413395317
 H         -7.4407845605       -0.4996013987        1.5547589128
 C         -5.3802410730       -0.6637605830        1.1018753278
 H         -5.0186033812       -0.3723250411        2.0946019289
 H         -5.5083894838       -1.7517621779        1.1517904581
 H         -4.8455603271        3.0287081761       -1.3214029490
 H         -6.5810121197        2.7071533086       -1.3997690532
 H         -5.0367155282        1.1509977545       -2.7137248574
 H         -6.2390582508        0.3596467581       -1.7025037320
 O         -3.0917992008        0.3310200063       -1.7764759731
 C         -1.8852520044       -0.2363078020       -1.4104300036
 O         -0.9727986949       -0.0362977103       -2.2389278387
 H          0.7737106064        0.3891992689       -0.9567315224
 C          1.0208934001        0.3302264718        0.0927537774
 C          0.4033420886       -0.6282003356        0.8841447471
 C          0.7188514163       -0.6757325721        2.2368708182
 C          1.6286981455        0.2138625259        2.7823514805
 C          2.2436269591        1.1661586520        1.9898474831
 C          1.9286345517        1.2251866951        0.6384457370
 N          2.5660524113        2.1809704338       -0.1817297643
 S          4.2380418023        2.0532210776       -0.2385292510
 O          4.7976546112        2.6412132639        0.9527126528
 O          4.6372358722        2.6555296685       -1.4905990715
 C          4.5442164424        0.2961637461       -0.2519711756
 C          4.9792431475       -0.3344889665        0.8957207601
 C          5.1312800057       -1.7116570009        0.8852706199
 C          4.8433541879       -2.4299770045       -0.2645369265
 C          4.4100839823       -1.7808375169       -1.4105105949
 C          4.2531324233       -0.4047615992       -1.4052875851
 H          3.9199744460        0.1334259073       -2.2786046145
 H          4.1893163435       -2.3398779355       -2.3059568694
 H          4.9580995420       -3.5025230102       -0.2685855531
 H          5.4686102838       -2.2198531283        1.7740625581
 H          5.1930080039        0.2620556439        1.7671416130
 H          2.1906781778        2.1971575369       -1.1199053304
 H          2.9616844166        1.8627130295        2.3917948055
 H          1.8625781635        0.1643543102        3.8347715771
 H          0.2367356348       -1.4115264756        2.8637793831
 C         -0.5621174623       -1.6183086360        0.2785320770
 H         -0.8922901962       -2.2937755976        1.0788019931
 C          0.1250198748       -2.4426781344       -0.7937110622
 C          1.0907885374       -3.5098204964       -0.3782274247
 C         -0.2397401877       -3.8863296930       -0.9562426051
 H         -0.2746656640       -4.2986151534       -1.9535347519
 H         -0.9905017790       -4.2898809783       -0.2924774489
 H          1.9747613321       -3.6634361211       -0.9767320805
 H          1.2440700203       -3.6582702204        0.6796533590
 H          0.3462469018       -1.8827714610       -1.6927692094
 O         -2.9667264499       -1.7031364828        1.7052285664
