  62
        -98.93685405
 C          2.1606180696        0.9800394502       -0.0440148400
 C          2.8723221696        0.2761004202        0.9549391300
 C          3.7075416293       -0.8417590100        0.4909772100
 C          3.7194158391       -1.1494557502       -0.8191286199
 C          4.5749314588       -2.2064105904       -1.4578978199
 C          6.0218369689       -1.6934788607       -1.6048848701
 C          7.0484479789       -2.4515407607       -0.7630278802
 H          7.2522021386       -3.4152159008       -1.2345061201
 H          7.9751805890       -1.8741246909       -0.7797193003
 C          6.6533564790       -2.7174695305        0.6928355199
 H          5.9756457388       -3.5712519104        0.7395875301
 H          7.5627920790       -3.0134791406        1.2200379898
 C          6.0124302093       -1.5410675603        1.4404584198
 H          6.3078412694       -0.5924902504        0.9915744497
 H          6.3936286594       -1.5406160203        2.4637132298
 C          4.4763238193       -1.6029027100        1.5356935700
 H          4.1525792091       -2.6476962800        1.5401215902
 H          4.1672312295       -1.1607412099        2.4877190300
 H          6.3251813388       -1.7557427408       -2.6509676402
 H          6.0386710491       -0.6353169506       -1.3357024003
 H          4.5491176787       -3.1135471603       -0.8581326298
 H          4.1468194587       -2.4221658204       -2.4369530798
 O          2.9935457391       -0.4705761301       -1.7447522499
 C          2.1971814093        0.6081805300       -1.3878816600
 O          1.5868915293        1.1326673801       -2.3368974299
 H         -0.0642955705       -0.0612539693        0.9049546304
 C         -0.6945151904        0.6568985208        0.3935026204
 C         -0.1537584603        1.8814660906        0.0193462002
 C         -0.9775694102        2.7990551007       -0.6183397098
 C         -2.2976608703        2.4837328509       -0.8918880197
 C         -2.8249100204        1.2569141710       -0.5349838795
 C         -2.0148096405        0.3369824510        0.1185036606
 N         -2.5394311707       -0.9161585289        0.4817678008
 S         -3.9822372506       -0.9529197885        1.3419923709
 O         -4.1602692703        0.2473191516        2.1257738408
 O         -3.9541473508       -2.2010102085        2.0730857811
 C         -5.2325000908       -1.0498027585        0.0782555511
 C         -5.1847237711       -2.1127722086       -0.8021872588
 C         -6.1520842112       -2.2077001285       -1.7896826287
 C         -7.1463039910       -1.2445840983       -1.8782323787
 C         -7.1827230807       -0.1855361882       -0.9841797688
 C         -6.2176078706       -0.0845072283        0.0058674711
 H         -6.2036419404        0.7230815718        0.7204156310
 H         -7.9568686706        0.5615516919       -1.0544989488
 H         -7.8974248811       -1.3205990083       -2.6485161686
 H         -6.1270579514       -3.0302704186       -2.4862084386
 H         -4.3979685112       -2.8410968087       -0.6963256788
 H         -1.8598051708       -1.5306413090        0.9061215407
 H         -3.8498327805        1.0058842412       -0.7534060993
 H         -2.9239563102        3.2041815410       -1.3954186197
 H         -0.5858633500        3.7603228906       -0.9069234000
 C          1.2907449398        2.1558419904        0.3609417400
 H          1.3716553800        2.2149374805        1.4571311200
 C          1.8245139500        3.4410645702       -0.2355785502
 C          1.6060973603        4.7469840904        0.4665672897
 C          2.9709412802        4.1294124401        0.4404420096
 H          3.7336332302        4.5848396199       -0.1731879406
 H          3.3503078802        3.6845196101        1.3490126996
 H          1.0595813704        4.7284521406        1.3974475297
 H          1.4341902104        5.6308292103       -0.1289248104
 H          1.8154523399        3.4313567601       -1.3196095002
 O          2.8059970097        0.5647979003        2.1818620100
