  62
        -98.93993947
 C         -1.7730820702       -1.6373025198       -0.0027768205
 C         -1.6093704397       -0.5065615299       -0.8331667306
 C         -2.7312274093        0.4534738606       -0.8811513607
 C         -3.8262963694        0.2088755410       -0.1379349908
 C         -5.0412854591        1.0812846916        0.0213697791
 C         -4.7849534987        2.2806989915        0.9536418890
 C         -3.4194794284        2.9476931909        0.7968830191
 H         -3.3037207581        3.6632337210        1.6151825990
 H         -2.6393479987        2.1926888806        0.9149006092
 C         -3.2103151780        3.7018042708       -0.5144528210
 H         -3.9288385977        4.5229135311       -0.5701846611
 H         -2.2091508678        4.1400275804       -0.4905520109
 C         -3.3400030982        2.8692650907       -1.7897792909
 H         -4.3818002483        2.6311650111       -1.9868679210
 H         -3.0011260879        3.4927893605       -2.6226008510
 C         -2.4870502488        1.6036681404       -1.8284548908
 H         -2.5501663789        1.1785248303       -2.8383046008
 H         -1.4342253587        1.8779863000       -1.6985303607
 H         -4.8595887589        1.9243753316        1.9837094390
 H         -5.5732155584        3.0179554518        0.7943197989
 H         -5.3900635089        1.4086591916       -0.9537921310
 H         -5.8229716094        0.4591272319        0.4622578991
 O         -3.9415569299       -0.8973075988        0.6499618693
 C         -2.9378040403       -1.8395470093        0.7398248094
 O         -3.1914074108       -2.7952404891        1.5004820695
 H          1.8657644797       -1.8869075713       -0.7246393803
 C          1.6885328897       -1.7112396212        0.3230738497
 C          0.4768349096       -2.0451866606        0.9075032297
 C          0.2890461896       -1.7753701005        2.2620894796
 C          1.2897663598       -1.1931660908        3.0142914696
 C          2.4971690300       -0.8563436314        2.4264194197
 C          2.6929816399       -1.1139805615        1.0758800597
 N          3.9164277301       -0.7875615021        0.4570216798
 S          3.8935262106        0.2812976378       -0.8359655003
 O          3.2384697805       -0.3245687820       -1.9635660003
 O          5.2810944308        0.6486446173       -1.0266370302
 C          2.9873830112        1.6847092883       -0.2106267704
 C          3.7019411515        2.6988389580        0.3984019295
 C          3.0145999919        3.7530876883        0.9765634994
 C          1.6280495619        3.7670704089        0.9505032093
 C          0.9278409116        2.7399361591        0.3379640794
 C          1.6080138512        1.6851664488       -0.2524011805
 H          1.0834035609        0.8799800090       -0.7445077005
 H         -0.1511524084        2.7458208496        0.3180955493
 H          1.0890659022        4.5818734591        1.4078801292
 H          3.5584359522        4.5552869281        1.4488885494
 H          4.7788525515        2.6462925476        0.3936880296
 H          4.6279600102       -0.4915427223        1.1115520198
 H          3.2834511601       -0.4007479116        3.0093434797
 H          1.1300832898       -0.9966267207        4.0635315896
 H         -0.6591943305       -2.0334124500        2.7139401396
 C         -0.6665009106       -2.6700632702        0.1434613896
 H         -1.0880839710       -3.4684885200        0.7705533897
 C         -0.2660760008       -3.2651298905       -1.1885932203
 C          0.4499905687       -4.5806893408       -1.2178823002
 C         -0.9729043013       -4.4909857302       -1.6798005003
 H         -1.1801777312       -4.5778994102       -2.7359365803
 H         -1.7428847715       -4.9102381099       -1.0481034303
 H          1.2232613787       -4.7292025811       -1.9563307901
 H          0.6463015984       -5.0632177108       -0.2721466301
 H          0.0088234296       -2.5225742206       -1.9276810303
 O         -0.5696777196       -0.2856708504       -1.5093500305
