  62
        -98.93947849
 C         -2.6479838669       -1.2803774323       -0.0600415294
 C         -2.6821781300       -0.1885433001       -0.9604883167
 C         -3.9874824826        0.4696592210       -1.1159946334
 C         -5.0478820496        0.0044906490       -0.4309486525
 C         -6.4171385904        0.6184850361       -0.4497044479
 C         -6.5733922668        1.6574799965        0.6696626510
 C         -5.4286197785        2.6684822311        0.7397185473
 H         -4.5093778747        2.1496003088        1.0220187549
 H         -5.6616570291        3.3678006423        1.5457276987
 C         -5.1893467610        3.4487610516       -0.5604362531
 H         -5.0497161154        4.5035037533       -0.3143377780
 H         -6.0690757926        3.3791764593       -1.2012887335
 C         -3.9533724497        3.0080482810       -1.3469814327
 H         -3.0845081766        2.9857136860       -0.6837606520
 H         -3.7564434552        3.7575027642       -2.1182243452
 C         -4.0592129123        1.6471855675       -2.0467180449
 H         -3.1998373189        1.5512669367       -2.7166748743
 H         -4.9702956648        1.6111936404       -2.6472413875
 H         -6.6234571200        1.1313342356        1.6258326049
 H         -7.5177677837        2.1845636202        0.5222845279
 H         -7.1523016936       -0.1743892597       -0.3023430688
 H         -6.5878711150        1.0840099869       -1.4183057250
 O         -4.9796394814       -1.0614639222        0.4075606330
 C         -3.7795894173       -1.7168975601        0.6283073886
 O         -3.8485436975       -2.6575623929        1.4456436743
 O         -1.6791494452        0.2170455113       -1.6032271427
 C         -1.3385140248       -2.0032708699        0.2041997471
 C         -0.3385811974       -1.0201800712        0.7643479941
 C         -0.6745070532       -0.3242261534        1.9232376101
 C          0.1943726827        0.5993597127        2.4702710992
 C          1.4162952162        0.8551220768        1.8721298600
 C          1.7646779750        0.1625430643        0.7214415521
 C          0.8942099919       -0.7788677848        0.1818335348
 H          1.1787602149       -1.3086703282       -0.7137027615
 N          2.9910352341        0.4309428946        0.0878605402
 S          4.3638145492        0.6232844122        1.0503341418
 O          4.4735227802       -0.4734665923        1.9870658760
 O          4.3411969797        1.9431349626        1.6290697795
 C          5.6470801500        0.5262259135       -0.1815358302
 C          6.3332427671       -0.6598173362       -0.3600890743
 C          7.3107208161       -0.7269191526       -1.3406498170
 C          7.5809384610        0.3855811677       -2.1231638671
 C          6.8832747491        1.5691727381       -1.9318519679
 C          5.9059552268        1.6437310422       -0.9524432346
 H          5.3444700186        2.5435519545       -0.7626005418
 H          7.0977040971        2.4322182365       -2.5412551461
 H          8.3420048008        0.3307712792       -2.8854746918
 H          7.8568239217       -1.6444048241       -1.4901900354
 H          6.0951641249       -1.4968955738        0.2764887052
 H          3.1701569542       -0.2048691040       -0.6774135122
 H          2.1016306495        1.5768368073        2.2860768270
 H         -0.0809486965        1.1307112603        3.3694249792
 H         -1.6324072444       -0.5185281356        2.3879285269
 H         -1.5542251483       -2.7483519893        0.9835173176
 C         -0.8699122933       -2.7233778359       -1.0421457901
 C          0.0437934489       -3.9055476496       -0.9266167976
 C         -1.3891828621       -4.1008182860       -1.3193098535
 H         -1.6129938650       -4.3715511556       -2.3402146058
 H         -2.0669874916       -4.5301764771       -0.5958200461
 H          0.8030872298       -4.0481216447       -1.6807707554
 H          0.3440731192       -4.2093842999        0.0649731568
 H         -0.7458191074       -2.0576350031       -1.8882806905
