  62
        -98.93553521
 C         -1.7832873999       -1.3009862098        0.2020011952
 C         -3.0158277071       -0.9400903257        0.7991059406
 C         -3.8256316412        0.0780044204        0.1063336454
 C         -3.3417773359        0.6557166561       -1.0087883308
 C         -3.9421805126        1.6853222764       -1.9432691731
 C         -5.1955533545        2.4613210683       -1.5480930380
 C         -4.9976343793        3.4538740910       -0.4024234642
 H         -4.3774795450        4.2792024868       -0.7616820615
 H         -5.9727814983        3.8646991117       -0.1322923815
 C         -4.3315574706        2.8915418580        0.8509932177
 H         -4.2349723055        3.7071036836        1.5730777525
 H         -3.3203291645        2.5564391158        0.6098466488
 C         -5.0830591355        1.7517577740        1.5357337230
 H         -6.1050940558        2.0659698842        1.7561254187
 H         -4.5831152274        1.5516923052        2.4875814860
 C         -5.1347972478        0.4287757877        0.7531029953
 H         -5.3495368802       -0.3739064285        1.4647859663
 H         -5.9365024790        0.4361384836        0.0183863459
 H         -6.0077431941        1.7758812187       -1.3243871192
 H         -5.4986249030        3.0331598770       -2.4293506771
 H         -4.1465953768        1.1513541665       -2.8779411083
 H         -3.1376082887        2.3941232077       -2.1648423585
 O         -2.1214401549        0.3169407858       -1.5168267939
 C         -1.3162067961       -0.6619979441       -0.9459114385
 O         -0.2406434169       -0.8347611250       -1.5445260790
 O         -3.4297558314       -1.4526987566        1.8736622437
 C         -0.9582178770       -2.3724848927        0.8890546619
 C          0.4912319601       -1.9674284623        1.0147144070
 C          1.5495336718       -2.8440397430        0.8090705362
 C          2.8577536248       -2.4227236800        0.9767199042
 C          3.1445264954       -1.1168857650        1.3260221701
 C          2.0951740861       -0.2236748006        1.5041154476
 C          0.7855075235       -0.6586197127        1.3763635933
 H         -0.0257460379        0.0417040473        1.5353862333
 N          2.3717582750        1.1209915142        1.7977253698
 S          3.6570581801        1.8586811187        1.0188708149
 O          4.8632467055        1.6340060774        1.7787549963
 O          3.2622455477        3.2442558772        0.8779542653
 C          3.8229252846        1.0874598214       -0.5835819033
 C          2.7028137281        0.8944817202       -1.3661244880
 C          2.8441410675        0.2818911956       -2.6004893963
 C          4.0991430997       -0.1119052747       -3.0373953069
 C          5.2178432770        0.1023311817       -2.2467494923
 C          5.0802963491        0.7025200263       -1.0059068662
 H          5.9193874103        0.8715283947       -0.3504260136
 H          6.1934716630       -0.2037092771       -2.5886376281
 H          4.2029973492       -0.5918154967       -3.9977359204
 H          1.9625283974        0.0992657660       -3.1934476498
 H          1.7279231019        1.1916017006       -1.0139660762
 H          1.5582275906        1.7180771221        1.7999709336
 H          4.1576755713       -0.7732324582        1.4598129439
 H          3.6667134162       -3.1202115194        0.8237937383
 H          1.3555789782       -3.8598603832        0.5085072702
 H         -1.3753050625       -2.4192786223        1.9100034962
 C         -1.1381398219       -3.7606790916        0.2866999442
 C         -2.2809819335       -4.0779725961       -0.6297342579
 C         -0.8840519210       -4.0230091987       -1.1668154753
 H         -0.4061213630       -4.9497236202       -1.4483317625
 H         -0.6029690202       -3.1793599041       -1.7773546630
 H         -2.7604321814       -5.0405378328       -0.5308373272
 H         -2.9607145103       -3.2785917910       -0.8876937963
 H         -0.8599340196       -4.5478414924        0.9802124357
