  62
        -98.94435826
 C          1.6098494597        1.3794054537        0.5426235743
 C          1.6050223831        0.0687631424        1.0856232636
 C          2.7410435167       -0.7837783503        0.7213161423
 C          3.7126845325       -0.2961534330       -0.0712758295
 C          4.9555972952       -1.0273306212       -0.5013887833
 C          4.7610177033       -1.9199125026       -1.7345971712
 C          3.9504244215       -3.1933655150       -1.4917614642
 H          4.0715637233       -3.8231410654       -2.3753460516
 H          4.3733648662       -3.7351935569       -0.6453093251
 C          2.4524165488       -2.9532656965       -1.2564939724
 H          1.8727024192       -3.6598182455       -1.8542522135
 H          2.1848920682       -1.9512488042       -1.6005398139
 C          2.0030697979       -3.1147399144        0.1956364052
 H          0.9371195564       -2.8814827441        0.2495653601
 H          2.1407329586       -4.1523132465        0.5066472844
 C          2.7347286422       -2.2063940315        1.1923753600
 H          2.1980977061       -2.2390179972        2.1433642428
 H          3.7532465044       -2.5601561564        1.3508891864
 H          4.2856612696       -1.3293079035       -2.5212782301
 H          5.7537456766       -2.2071841999       -2.0890055874
 H          5.3330155619       -1.6267609336        0.3274897837
 H          5.6969556871       -0.2628699200       -0.7439467807
 O          3.6815748481        0.9665736814       -0.5716332684
 C          2.6161970404        1.8204902658       -0.3167909578
 O          2.7048884938        2.9183346444       -0.8986340155
 O          0.6977656546       -0.3640013347        1.8442248958
 C          0.4235775113        2.2747994416        0.8627365257
 C         -0.4994092570        2.2654920490       -0.3311816915
 C         -0.4892390532        3.2540054609       -1.3074251854
 C         -1.3285192635        3.1573739509       -2.4033772160
 C         -2.2029613128        2.0936832880       -2.5355740251
 C         -2.2191987987        1.0984440399       -1.5644585641
 C         -1.3612890150        1.1854905293       -0.4799055663
 H         -1.3609185632        0.4033618870        0.2648031067
 N         -3.0869489518        0.0003734012       -1.6659444772
 S         -3.8940795156       -0.5351834063       -0.2964045950
 O         -5.0848089767       -1.1782786872       -0.8131614745
 O         -4.1124847639        0.5426485321        0.6398729024
 C         -2.8415679794       -1.7827647811        0.4096623444
 C         -2.4996149410       -2.8654083796       -0.3769047041
 C         -1.7196930645       -3.8692438891        0.1720806402
 C         -1.2975712105       -3.7739811605        1.4904555296
 C         -1.6482205048       -2.6805110347        2.2655246805
 C         -2.4307084781       -1.6744075234        1.7222526599
 H         -2.7202848286       -0.8049076926        2.2909851256
 H         -1.3087656434       -2.5989820208        3.2851876049
 H         -0.6866535586       -4.5549367081        1.9153035355
 H         -1.4390324235       -4.7206617577       -0.4271252444
 H         -2.8521646145       -2.9047895625       -1.3942536396
 H         -3.7003391451        0.0208060853       -2.4679501098
 H         -2.8667574426        2.0296266154       -3.3847391057
 H         -1.3092408008        3.9274582570       -3.1599365059
 H          0.1908185509        4.0850705812       -1.2174231035
 H         -0.1015116224        1.7735874493        1.6879019523
 C          0.8219784136        3.6616564062        1.3175478669
 C         -0.2093723782        4.5328338086        1.9683632861
 C          0.9059322776        3.9539154059        2.7844928073
 H          1.6859138666        4.6138224629        3.1336617744
 H          0.6734462806        3.1520261412        3.4699961338
 H         -0.1982151068        5.5914591844        1.7588368433
 H         -1.1996875643        4.1205944663        2.0949293897
 H          1.5551141987        4.1352597208        0.6773703769
