  62
        -98.94654892
 C         -1.0985241261       -1.8028335222       -0.2251423218
 C         -1.2277427539       -0.6112803167       -0.9827881577
 C         -2.5462802929        0.0421905889       -0.9330230584
 C         -3.5335726317       -0.5019766284       -0.2011077043
 C         -4.9080229626        0.0784472722       -0.0375706720
 C         -4.9866714229        1.0003245640        1.1864843707
 C         -3.8680214121        2.0404849934        1.2525231165
 H         -4.0530137749        2.6629265612        2.1311077762
 H         -2.9109410067        1.5388289641        1.4169043395
 C         -3.7547996655        2.9333667109        0.0094239784
 H         -3.6173949728        3.9667884592        0.3350618342
 H         -4.6815306452        2.8928593373       -0.5652348679
 C         -2.5716657148        2.5940459710       -0.8993722505
 H         -2.4367057243        3.4215827676       -1.6024880545
 H         -1.6654045776        2.5237954819       -0.2913838898
 C         -2.7135219906        1.3082982729       -1.7250137351
 H         -3.6725455388        1.3123353722       -2.2482860640
 H         -1.9134224279        1.3007869573       -2.4711956548
 H         -5.9538812966        1.5066292073        1.1750832850
 H         -4.9351822780        0.3856039774        2.0881689883
 H         -5.6132368697       -0.7442941003        0.0937863656
 H         -5.1722030248        0.6301554247       -0.9377360359
 O         -3.3763267202       -1.6471164512        0.5111133738
 C         -2.1616877659       -2.3107730753        0.5260418125
 O         -2.1549800002       -3.3428782535        1.2291113885
 O         -0.3097381162       -0.1028420843       -1.6776620526
 C          0.1861733079       -2.6091624918       -0.1462853551
 C          1.1439338523       -2.0688768855        0.8901675022
 C          1.9259248629       -2.9320510744        1.6504498329
 C          2.8336375320       -2.4342095304        2.5674727068
 C          2.9859127820       -1.0700299669        2.7405589727
 C          2.2032432750       -0.1989935005        1.9902703792
 C          1.2916460486       -0.7033590656        1.0734141943
 H          0.6878721060       -0.0159056025        0.5056427947
 N          2.3217755311        1.1837156228        2.1482592414
 S          1.6917266590        2.2846687203        1.0737060600
 O          2.3291149212        3.5318809413        1.4493734192
 O          0.2515272326        2.2841210866        1.1454079331
 C          2.2475356844        1.8252033276       -0.5579669032
 C          1.4880566974        2.2311388100       -1.6352402272
 C          1.9163754738        1.9203047396       -2.9151923787
 C          3.0900793391        1.2073083858       -3.0952970314
 C          3.8457602726        0.8114407992       -2.0029425099
 C          3.4267817097        1.1265428330       -0.7206167718
 H          3.9989863353        0.8226295674        0.1408173013
 H          4.7574427771        0.2531900299       -2.1444614250
 H          3.4154434527        0.9552172138       -4.0925728771
 H          1.3246247053        2.2242460060       -3.7636478531
 H          0.5694553106        2.7656020514       -1.4550889232
 H          3.1067525337        1.5242372696        2.6800148067
 H          3.6941252678       -0.6798004960        3.4549602203
 H          3.4318077221       -3.1144014130        3.1542766127
 H          1.8096542140       -3.9982274268        1.5281422253
 H         -0.1131392407       -3.6184443244        0.1695403755
 C          0.9083085172       -2.7162646138       -1.4781772273
 C          1.7439448102       -3.9231443689       -1.7745741971
 C          0.4426302528       -3.7182853490       -2.4894115060
 H          0.4578448505       -3.4406488053       -3.5323482598
 H         -0.3932506445       -4.3474285278       -2.2184304708
 H          2.6604754254       -3.7883974333       -2.3276352097
 H          1.7898104895       -4.7022782377       -1.0291837053
 H          1.2522504993       -1.7589869158       -1.8484478496
