  62
        -98.93899263
 C         -2.4162417187       -1.2439149098       -0.0811075370
 C         -3.2936939826       -0.6468483563        0.8594621188
 C         -4.0179299759        0.5587843539        0.4251553367
 C         -3.8129225624        1.0264001252       -0.8181214207
 C         -4.3861384905        2.2716814953       -1.4354990488
 C         -3.4237042436        3.4577588322       -1.2516952589
 C         -3.5957450638        4.2301529253        0.0557579212
 H         -2.7781093865        4.9523247413        0.1143340129
 H         -4.5302840612        4.7939656613        0.0186091614
 C         -3.5887778585        3.3764173836        1.3265933025
 H         -2.7967492676        2.6275141926        1.2608317897
 H         -3.3440720454        4.0300016087        2.1661510285
 C         -4.9371125922        2.6949291659        1.6041152185
 H         -5.6977530967        3.1380191333        0.9616369791
 H         -5.2406926605        2.9020502382        2.6322426984
 C         -4.9472279532        1.1678782872        1.4393727361
 H         -4.6669749582        0.6981253749        2.3871860045
 H         -5.9680807414        0.8399942593        1.2173063681
 H         -2.4009837356        3.0759682937       -1.3217026757
 H         -3.5666017373        4.1567213765       -2.0784701099
 H         -4.4904386444        2.0708165582       -2.5037769759
 H         -5.3656982257        2.4923114910       -1.0219314009
 O         -2.9707905088        0.4180521084       -1.6960859812
 C         -2.2454198367       -0.7115530744       -1.3586371225
 O         -1.5173948996       -1.1276667584       -2.2829717090
 O         -3.4624827260       -1.1041084409        2.0214658373
 C         -1.6263017680       -2.4576282744        0.3860473385
 C         -0.2231324992       -2.0078436498        0.7140952484
 C          0.1443364949       -1.7541231651        2.0313652159
 C          1.4004559406       -1.2575169076        2.3307352580
 C          2.3101693818       -0.9900457792        1.3229260351
 C          1.9474458259       -1.2286976245        0.0043203645
 C          0.6988338832       -1.7534336525       -0.2915221668
 H          0.4197496291       -1.9108283322       -1.3223674962
 N          2.8537251994       -0.9114127840       -1.0316968412
 S          3.2309448646        0.7267767462       -1.1541630101
 O          2.1573123318        1.5566619543       -0.6542168764
 O          3.6195367971        0.9342608604       -2.5323690478
 C          4.6690865675        0.8990642616       -0.1175257823
 C          5.7935403213        0.1637905766       -0.4387673355
 C          6.9211102126        0.2837361335        0.3576980522
 C          6.9061477967        1.1336872061        1.4538233513
 C          5.7707079500        1.8679068353        1.7605698917
 C          4.6388634145        1.7517419182        0.9684050582
 H          3.7307511618        2.2971589181        1.1703039089
 H          5.7606637075        2.5285671054        2.6125810250
 H          7.7846923284        1.2249043055        2.0727859287
 H          7.8061596419       -0.2848859088        0.1220620353
 H          5.7628099413       -0.4802156957       -1.3016311762
 H          2.5337074216       -1.2392981206       -1.9334640578
 H          3.2857422864       -0.5899223655        1.5464653756
 H          1.6712647439       -1.0681457428        3.3582265615
 H         -0.5754779679       -1.9281414039        2.8182609594
 H         -2.1078057579       -2.7707961777        1.3217878357
 C         -1.6664184122       -3.6169795878       -0.5870809411
 C         -1.2958724991       -4.9846507135       -0.0992651463
 C         -2.7229701714       -4.6672667450       -0.4277042793
 H         -3.1577894126       -5.0973314212       -1.3174685587
 H         -3.4220853264       -4.5533359292        0.3877909627
 H         -0.7481330650       -5.6368747725       -0.7618902871
 H         -1.0264007040       -5.0858570372        0.9410603762
 H         -1.3893535280       -3.3483909811       -1.5980894391
