  62
        -98.94109765
 C          0.7779670864        1.2032337503       -0.0004912532
 C          1.4920826413        0.5146543813        1.0068916767
 C          2.4484215974       -0.5065118726        0.5475185282
 C          2.5657976333       -0.7551293777       -0.7681034120
 C          3.5078195412       -1.7072454180       -1.4627182248
 C          4.9563274434       -1.7621293323       -0.9552968809
 C          5.5095535571       -0.4387274401       -0.4069103358
 H          6.4659434299       -0.2266745279       -0.8885164261
 H          4.8331854278        0.3821203432       -0.6508512164
 C          5.7439402890       -0.4731476750        1.1054144765
 H          6.1993436810       -1.4307018578        1.3676452465
 H          6.4583196555        0.3104038905        1.3693611156
 C          4.4998024472       -0.2587283289        1.9670732638
 H          4.1764185973        0.7834942423        1.8994560947
 H          4.7751886829       -0.4398822512        3.0090495404
 C          3.2912896923       -1.1416322771        1.6156182758
 H          3.6055510255       -2.1451990123        1.3390555590
 H          2.6556302477       -1.2074033869        2.5033468032
 H          5.0433044168       -2.5263898267       -0.1841634897
 H          5.5713851925       -2.0925756248       -1.7940083769
 H          3.0846399989       -2.7137556106       -1.4224126646
 H          3.4999015637       -1.3955007811       -2.5096263376
 O          1.7817727305       -0.1376836298       -1.6955319844
 C          0.8826201496        0.8568922301       -1.3465162971
 O          0.2583379590        1.3435983817       -2.3067040585
 O          1.3531692537        0.7539440272        2.2370655067
 C         -0.1118117582        2.3691355513        0.3923999487
 C         -1.5289280852        2.1361634496       -0.0627122330
 C         -2.2099959283        2.9850422631       -0.9249918553
 C         -3.5081199419        2.6972091442       -1.3084503202
 C         -4.1504478042        1.5654384803       -0.8431275134
 C         -3.4812300367        0.7158070841        0.0320176063
 C         -2.1828391378        1.0073809817        0.4175552146
 H         -1.6716371862        0.3523684280        1.1089411711
 N         -4.1174703031       -0.4268175831        0.5334632564
 S         -3.2619480105       -1.7363643636        1.0901273987
 O         -4.2173078612       -2.8243651265        1.0498500345
 O         -2.7001325399       -1.4546193547        2.3877084114
 C         -1.9579827916       -2.0682884406       -0.0816796306
 C         -2.1720201324       -1.8855860523       -1.4329211546
 C         -1.1662509112       -2.2278918440       -2.3219196723
 C          0.0215732460       -2.7636848242       -1.8512140384
 C          0.2201099001       -2.9442086271       -0.4915243810
 C         -0.7747220880       -2.5865106136        0.4027880352
 H         -0.6519349912       -2.6927863473        1.4691738594
 H          1.1422885958       -3.3597089010       -0.1181524668
 H          0.7967104453       -3.0349762592       -2.5502963191
 H         -1.3110124382       -2.0741099734       -3.3790396570
 H         -3.1055624134       -1.4758002239       -1.7823484111
 H         -4.9901059143       -0.6785764769        0.0950364909
 H         -5.1611482120        1.3388961158       -1.1458228426
 H         -4.0247775832        3.3613924182       -1.9843509763
 H         -1.7235564038        3.8675204995       -1.3051106189
 H         -0.1076187644        2.3809673089        1.4924741730
 C          0.4884687309        3.6658094625       -0.1117264714
 C          0.1650381481        4.9596682011        0.5716763891
 C          1.5283282878        4.3550373032        0.7177310538
 H          2.3599633170        4.8266940803        0.2158269764
 H          1.7902081879        3.9013830605        1.6626875370
 H          0.0622930085        5.8503316714       -0.0293865800
 H         -0.4997888454        4.9215869400        1.4212853027
 H          0.6254418615        3.6736065720       -1.1874130682
