  62
        -98.94659727
 C          1.1677250903        1.3562009527        0.2499160331
 C          1.3693690545        0.3195668613       -0.6934082948
 C          2.3481973160       -0.7107183905       -0.3145198226
 C          2.9156701552       -0.6736490033        0.9038226315
 C          3.9665067627       -1.6264083751        1.3935814491
 C          5.3751425786       -1.0941941350        1.0933196467
 C          5.5646887856       -0.6275711884       -0.3502798070
 H          4.9361525131        0.2480652226       -0.5281001828
 H          6.6024770644       -0.3028510579       -0.4526737990
 C          5.2568410770       -1.6951175058       -1.4097286809
 H          6.0478712085       -1.6783851496       -2.1625021534
 H          5.2676608044       -2.6850355817       -0.9522724902
 C          3.9332696311       -1.4927642090       -2.1503674677
 H          3.8816601686       -0.4707368744       -2.5342315611
 H          3.9206713670       -2.1659923196       -3.0116519956
 C          2.6645238935       -1.7689918422       -1.3331689674
 H          1.8170702798       -1.7836095299       -2.0241758119
 H          2.7412271004       -2.7500459923       -0.8620905342
 H          5.5746621372       -0.2478921569        1.7547358326
 H          6.0975955628       -1.8800353057        1.3212510867
 H          3.8549852203       -1.7397958019        2.4732883677
 H          3.8280130185       -2.5949151684        0.9170374268
 O          2.6225202683        0.2801182473        1.8225946246
 C          1.7766871290        1.3277414972        1.5097239207
 O          1.6412637704        2.1640118733        2.4247557650
 O          0.7842763641        0.2383616843       -1.8069722351
 C          0.2812769552        2.5666776074       -0.0086591445
 C         -1.1724286564        2.2263197292        0.2085060324
 C         -1.8956134937        2.8012773666        1.2466925386
 C         -3.2207250433        2.4600060934        1.4593257152
 C         -3.8484025021        1.5322175227        0.6467043458
 C         -3.1284295925        0.9463997989       -0.3858436412
 C         -1.8069205301        1.3008184535       -0.6080756648
 H         -1.2498674415        0.8291694873       -1.4041763543
 N         -3.7433541893       -0.0498544536       -1.1825953027
 S         -3.9649134374       -1.5106780324       -0.3935805670
 O         -4.4046965686       -2.4463804410       -1.4026397144
 O         -4.8598494528       -1.2994365997        0.7153556904
 C         -2.3515481231       -1.9797566199        0.2100598569
 C         -1.8535341160       -1.3644728300        1.3417049356
 C         -0.5842472382       -1.7019556978        1.7821590292
 C          0.1566499341       -2.6506705687        1.0952667577
 C         -0.3560946141       -3.2565065680       -0.0408959102
 C         -1.6179966679       -2.9116756084       -0.4955231056
 H         -2.0541103891       -3.3574520009       -1.3751773722
 H          0.2242432616       -3.9916552042       -0.5746210565
 H          1.1390203470       -2.9162693281        1.4520968129
 H         -0.1748192080       -1.2178502357        2.6555175096
 H         -2.4600260107       -0.6429936371        1.8649117309
 H         -3.2348109200       -0.2240681816       -2.0396011165
 H         -4.8698918253        1.2318287079        0.8137731813
 H         -3.7688566268        2.9166862137        2.2694416158
 H         -1.4061665465        3.5078405694        1.9012782066
 H          0.5668266919        3.3081631118        0.7492591949
 C          0.5024165268        3.1756611777       -1.3800098085
 C          0.1045834099        4.6006535016       -1.6134587818
 C          1.5548677752        4.2268400088       -1.5541608635
 H          2.1295454348        4.2345460713       -2.4682539303
 H          2.1212678580        4.5177892027       -0.6811502256
 H         -0.3196823672        4.8670255081       -2.5693289483
 H         -0.3120216354        5.1469013468       -0.7806583266
 H          0.3638834769        2.4746847767       -2.1922746679
