  62
        -98.93088859
 C         -2.7612640306       -1.0884239534        0.0794752687
 C         -2.6666749717       -0.1435159141       -0.9711538371
 C         -3.0686755276        1.2350163806       -0.6395012232
 C         -3.4925908844        1.5224627707        0.6032338207
 C         -3.8223072581        2.8944629730        1.1177957676
 C         -2.5192159198        3.6558602171        1.4371579108
 C         -2.2637920259        4.8749340905        0.5501614514
 H         -2.9112611407        5.6921990622        0.8751853682
 H         -1.2297355398        5.1844388641        0.7168650620
 C         -2.4860583929        4.6700182813       -0.9512876167
 H         -3.5526705219        4.7236715895       -1.1750372914
 H         -2.0175856483        5.5159578291       -1.4586895119
 C         -1.9256003212        3.3706915347       -1.5442731124
 H         -1.0990384810        2.9940701776       -0.9387743772
 H         -1.5154336822        3.5982803323       -2.5306016200
 C         -2.9711843054        2.2556157795       -1.7393555589
 H         -3.9537991115        2.7022891169       -1.9133593132
 H         -2.7062052785        1.6816967785       -2.6323272369
 H         -2.5369196951        3.9874892138        2.4766346796
 H         -1.6811940728        2.9596303688        1.3473689156
 H         -4.4114918524        3.4347897490        0.3803305074
 H         -4.4193443655        2.7688933002        2.0212170245
 O         -3.5896957974        0.5847577739        1.5815489372
 C         -3.2120620465       -0.7264105838        1.3518057425
 O         -3.3310375544       -1.4736011170        2.3435731455
 H         -0.3060839236       -1.0464577066       -1.0608406930
 C          0.0516891631       -1.7538329572       -0.3265427587
 C         -0.8448066972       -2.6293043189        0.2711783007
 C         -0.3607771193       -3.5322381863        1.2093541784
 C          0.9831947575       -3.5500948174        1.5431775172
 C          1.8681129357       -2.6625416917        0.9574162888
 C          1.3930322312       -1.7577075088        0.0188767321
 N          2.2834732016       -0.8170556127       -0.5564606577
 S          2.6986811064        0.4724337784        0.4603784173
 O          2.5948590588        0.0478295715        1.8336339987
 O          1.9273591576        1.6383246820        0.0799425180
 C          4.4096471982        0.7191635355        0.0288326299
 C          4.7518983873        1.6961180841       -0.8849862336
 C          6.0836791034        1.8449274211       -1.2398161763
 C          7.0439456379        1.0152534903       -0.6815409630
 C          6.6842522043        0.0379628143        0.2346734462
 C          5.3549050932       -0.1144431593        0.5938108625
 H          5.0306942191       -0.8525746344        1.3087271897
 H          7.4336532931       -0.6043381501        0.6684716093
 H          8.0792800461        1.1323793596       -0.9602619217
 H          6.3660484302        2.6056715695       -1.9497437503
 H          3.9735216138        2.3233796046       -1.2884410154
 H          1.8943046076       -0.4164755423       -1.4007864635
 H          2.9104328448       -2.6497482999        1.2296955117
 H          1.3419957933       -4.2552046972        2.2774569175
 H         -1.0500082487       -4.2064903627        1.6966876097
 C         -2.3141208882       -2.5368068738       -0.0560694953
 H         -2.8628764122       -3.0845414199        0.7260648512
 C         -2.6787135252       -3.1645482419       -1.3936716461
 C         -1.6688419158       -3.5441412568       -2.4306756667
 C         -2.3655841822       -4.6103490508       -1.6436932028
 H         -3.1053625231       -5.2222998869       -2.1367458401
 H         -1.7911469583       -5.1289324912       -0.8908545137
 H         -1.9383401496       -3.3973763469       -3.4653279016
 H         -0.6271980159       -3.3560263585       -2.2228609371
 H         -3.6320372073       -2.8014601766       -1.7629132274
 O         -2.2578214211       -0.4106105116       -2.1317111453
