  62
        -98.93492329
 C         -1.0617655188       -1.1939180658        0.6301208273
 C         -1.9055326833       -0.8958932319       -0.4648586076
 C         -3.0452240404        0.0047679089       -0.1944422760
 C         -3.1667894655        0.5658824898        1.0210511001
 C         -4.2354253494        1.4985162616        1.5334237081
 C         -4.6650371346        2.6387182883        0.5975493297
 C         -6.0710201386        2.4574363672        0.0222341445
 H         -6.7166805715        2.0553327704        0.8057912890
 H         -6.4640933868        3.4388623239       -0.2522354537
 C         -6.1587286936        1.5628716452       -1.2130168620
 H         -5.7230177849        2.0843808449       -2.0680483561
 H         -7.2174401414        1.4061312717       -1.4325229074
 C         -5.4775371839        0.1993014422       -1.0822104946
 H         -5.6641365284       -0.2274171137       -0.0973301224
 H         -5.9327738489       -0.4727286840       -1.8126979845
 C         -3.9671494181        0.2374276942       -1.3602845938
 H         -3.7051566917       -0.5435302023       -2.0811594755
 H         -3.6970769680        1.1845103730       -1.8369120556
 H         -3.9360801443        2.7551851142       -0.2034476459
 H         -4.6548606178        3.5642178116        1.1759586677
 H         -5.1075679516        0.9034903954        1.8167104212
 H         -3.8273615739        1.9133634490        2.4581091462
 O         -2.2745787612        0.3200134751        2.0236618174
 C         -1.2088011538       -0.5434824819        1.8562043644
 O         -0.4661239157       -0.6413716884        2.8545051040
 H          0.9047425625        0.3350089680       -0.1077832125
 C          1.2929295161       -0.3703108051       -0.8269227298
 C          0.9572938881       -1.7129912406       -0.7118416740
 C          1.4246700075       -2.5968208126       -1.6749937821
 C          2.2036286674       -2.1363835060       -2.7231358427
 C          2.5531863395       -0.8019907576       -2.8210137424
 C          2.0863203882        0.0910989345       -1.8628080681
 N          2.4127470961        1.4547593857       -1.9144930587
 S          2.6175124072        2.3046542854       -0.4912058689
 O          1.3399571478        2.6142160115        0.1021883083
 O          3.4251266324        3.4444869260       -0.8718131095
 C          3.5661593712        1.2198497708        0.5618094389
 C          3.0073899686        0.6672194626        1.6957165093
 C          3.7660254116       -0.2077447933        2.4580019610
 C          5.0633677578       -0.5120200287        2.0774672680
 C          5.6149849458        0.0595773919        0.9405784201
 C          4.8605722586        0.9311394090        0.1733113303
 H          5.2578262080        1.4027899674       -0.7106677365
 H          6.6262868915       -0.1743669786        0.6498050207
 H          5.6470334078       -1.1961778886        2.6728402556
 H          3.3284149784       -0.6488215514        3.3396831549
 H          1.9932750706        0.9147819860        1.9702509824
 H          3.0906190963        1.7106536216       -2.6167463977
 H          3.1667674511       -0.4491038363       -3.6354246127
 H          2.5513074352       -2.8308530906       -3.4727549436
 H          1.1629827825       -3.6404990502       -1.6198456390
 C          0.1374957262       -2.1147774559        0.4903330527
 H          0.7527008536       -1.9024935019        1.3815311529
 C         -0.1911332664       -3.5996018256        0.5409647613
 C         -1.4624105836       -4.0926963146        1.1640453144
 C         -1.2540622179       -4.2193536898       -0.3137115945
 H         -1.0733751741       -5.2035941332       -0.7208934502
 H         -1.8063404028       -3.5669193532       -0.9703269442
 H         -1.4234722678       -4.9848265725        1.7711960161
 H         -2.1652752275       -3.3525613071        1.5193084845
 H          0.6929509353       -4.2014570626        0.7271818572
 O         -1.7358910819       -1.3589600040       -1.6226873669
