  62
        -98.94214189
 C         -2.0017127864       -0.6484293008        0.5015307239
 C         -1.4609885154        0.4411663125        1.2195764280
 C         -1.8036094988        1.7976330523        0.7538932739
 C         -2.5921506104        1.9272364830       -0.3286139985
 C         -3.0702007789        3.1884882484       -0.9998669462
 C         -1.9838947771        3.8623508347       -1.8497947051
 C         -0.6246557856        3.9874752146       -1.1674688905
 H         -0.2474790755        2.9902326899       -0.9304646685
 H          0.0705095241        4.4195505978       -1.8932508841
 C         -0.6040606227        4.8686947904        0.0800945720
 H         -0.9728925022        5.8636118153       -0.1802338148
 H          0.4418239490        4.9704104865        0.3813745013
 C         -1.3944709236        4.3529173730        1.2861062790
 H         -2.4570947629        4.5555160143        1.1818327936
 H         -1.0552006074        4.9158298593        2.1604994857
 C         -1.1711446476        2.8774676033        1.5982607809
 H         -0.0933341374        2.6757733072        1.5940369298
 H         -1.5009993760        2.6787254185        2.6250345109
 H         -1.8449347403        3.2692030693       -2.7573080901
 H         -2.3409004034        4.8519481038       -2.1427298558
 H         -3.8931654750        2.8971889965       -1.6568413214
 H         -3.4645303820        3.8808103577       -0.2617508939
 O         -3.0726575018        0.8465203429       -1.0077177771
 C         -2.7685166785       -0.4523414171       -0.6455741400
 O         -3.2466158429       -1.3193982023       -1.4031320194
 O         -0.7092234299        0.2941885761        2.2230929739
 C         -1.6142602341       -2.0627217801        0.9071798961
 C         -0.6888703989       -2.5869716513       -0.1635229343
 C         -0.9588937411       -3.6815168226       -0.9718535997
 C         -0.0963966404       -4.0079910555       -2.0056779939
 C          1.0258959909       -3.2440749062       -2.2664567873
 C          1.3127630375       -2.1534908165       -1.4499900140
 C          0.4766114063       -1.8632425681       -0.3872674596
 H          0.6968825398       -1.0209175016        0.2478350051
 N          2.4395044522       -1.3547672729       -1.6806353515
 S          2.4936974530        0.2660124313       -1.2549684437
 O          1.1834099938        0.8681329095       -1.2047523644
 O          3.4247202358        0.8447757083       -2.2024750706
 C          3.2743117888        0.2362658685        0.3458336407
 C          2.5709012316        0.5252898143        1.4966327086
 C          3.2302351198        0.4727879859        2.7159164574
 C          4.5731377800        0.1353285675        2.7645693713
 C          5.2682261118       -0.1500728724        1.5983991701
 C          4.6150998029       -0.0996905737        0.3787284206
 H          5.1187011303       -0.3015750864       -0.5519511310
 H          6.3133366676       -0.4116713620        1.6378879508
 H          5.0794767383        0.0958867376        3.7161462266
 H          2.6803743994        0.6918491560        3.6173780597
 H          1.5215748821        0.7740681193        1.4435319586
 H          2.9265373251       -1.5376015397       -2.5449142782
 H          1.6731242964       -3.4812808132       -3.0971380590
 H         -0.3167278747       -4.8574636972       -2.6346091267
 H         -1.8510325842       -4.2637318140       -0.8105778347
 H         -1.0399643000       -1.9547050592        1.8384641201
 C         -2.8229077864       -2.9317236977        1.1695590043
 C         -2.6820641746       -4.1641282755        2.0109444899
 C         -3.4093105214       -2.9692555108        2.5478935660
 H         -4.4830832219       -3.0187771104        2.6485630093
 H         -2.9268485563       -2.3759512017        3.3107991145
 H         -3.2574627038       -5.0379429171        1.7457028329
 H         -1.7042431219       -4.3845360120        2.4114367974
 H         -3.5123746343       -2.9572468905        0.3340569645
