  62
        -98.93938113
 C          1.9094664018        0.8447442083        0.2497546925
 C          2.2959902456       -0.1847013046        1.1438652745
 C          2.7846010831       -1.4276868368        0.5342708913
 C          2.7688819158       -1.5501390937       -0.8051915028
 C          3.2854796335       -2.7368663294       -1.5650108092
 C          4.7677003270       -2.5628570432       -1.9259277140
 C          5.6452200102       -2.1396842954       -0.7478673263
 H          6.6722327607       -2.0761645331       -1.1135740583
 H          5.3546255139       -1.1356803958       -0.4299809117
 C          5.5892955038       -3.0878669856        0.4580296796
 H          5.1836580408       -4.0527203320        0.1519575725
 H          6.6064988194       -3.2611832828        0.8151731823
 C          4.7854042520       -2.5562177545        1.6461674703
 H          4.9875353893       -3.1968899781        2.5086021734
 H          5.1272893627       -1.5494654740        1.8997958861
 C          3.2635899844       -2.5134021072        1.4563709298
 H          2.8105043244       -2.2997130185        2.4292281523
 H          2.9050675433       -3.4887646338        1.1202627632
 H          5.1354082970       -3.5052181906       -2.3357064392
 H          4.8464948176       -1.7993342027       -2.7031744571
 H          2.7040703038       -2.8350658863       -2.4832542227
 H          3.1483071999       -3.6331637295       -0.9630357334
 O          2.3188112880       -0.5718060459       -1.6298037174
 C          1.8791057244        0.6478790866       -1.1314284769
 O          1.5005322091        1.4422334533       -2.0123908590
 O          2.2365510731       -0.0666421467        2.3987347601
 C          1.4071572273        2.1456058049        0.8478653688
 C          0.0998751954        2.5469915429        0.2097968139
 C         -0.1619827759        3.8163870468       -0.2870638774
 C         -1.3976270990        4.1092453590       -0.8389162060
 C         -2.3911757345        3.1519446239       -0.9055298127
 C         -2.1346608227        1.8721029455       -0.4218321512
 C         -0.9034360402        1.5870503167        0.1416414325
 H         -0.7141897766        0.5928511848        0.5229125892
 N         -3.1080963592        0.8658622950       -0.5301622836
 S         -3.0536742199       -0.4864240905        0.4666458682
 O         -2.9511107305       -0.0875825346        1.8537853709
 O         -2.0377662628       -1.3881119806       -0.0188495072
 C         -4.6710738469       -1.1669428489        0.1497655019
 C         -4.8514969414       -1.9706764382       -0.9598810908
 C         -6.1156212833       -2.4731220917       -1.2250877467
 C         -7.1729180528       -2.1642545547       -0.3820970258
 C         -6.9764168216       -1.3583152748        0.7292178476
 C         -5.7147074766       -0.8524141804        0.9998901369
 H         -5.5117151949       -0.2309079254        1.8571191320
 H         -7.7991143189       -1.1228403800        1.3848495491
 H         -8.1554309273       -2.5568803417       -0.5911095458
 H         -6.2707493398       -3.1028457022       -2.0862419447
 H         -3.9977676461       -2.1893030621       -1.5802939068
 H         -4.0454865413        1.2212621388       -0.6543033210
 H         -3.3514011096        3.3814065284       -1.3412793657
 H         -1.5879252407        5.0997612192       -1.2236104491
 H          0.6041822779        4.5733918035       -0.2596658467
 H          1.1933345273        1.8925935789        1.9015310848
 C          2.4414596510        3.2620387560        0.8728257261
 C          3.9081110470        2.9627306969        0.7957689528
 C          3.2232906375        3.6496971343       -0.3453116365
 H          3.4308751803        4.6969319203       -0.5095186251
 H          3.0405067876        3.0907759747       -1.2494217479
 H          4.5808478498        3.5350573617        1.4168705633
 H          4.2020821993        1.9306613890        0.6688908591
 H          2.1555280458        4.0657175306        1.5445032169
