  62
        -98.94638761
 C          1.3564985811        1.1144173604       -0.1099559706
 C          2.4206233113        1.0262652803        0.8237137892
 C          3.1800978311       -0.2281104998        0.8186381092
 C          2.8220021708       -1.2193240898       -0.0175042806
 C          3.4857016106       -2.5653079899       -0.1295775606
 C          4.7339068903       -2.5752270502       -1.0231641609
 C          5.9683559606       -1.8945067103       -0.4307828412
 H          6.1595714108       -2.2928815902        0.5661389688
 H          6.8180066604       -2.1697459005       -1.0589324314
 C          5.8782243908       -0.3634106103       -0.3673437214
 H          6.8093536108        0.0720858095       -0.7370477417
 H          5.0795311907       -0.0173680003       -1.0274686913
 C          5.6397346212        0.1993412899        1.0337986786
 H          6.4994996113       -0.0233258901        1.6697377384
 H          5.5514051913        1.2860256299        0.9564678685
 C          4.3741233313       -0.3322412998        1.7187905189
 H          4.1794494016        0.2810728503        2.6019928689
 H          4.5238631212       -1.3640273198        2.0357496790
 H          4.9835161002       -3.6202491403       -1.2211875108
 H          4.4838325102       -2.1070285503       -1.9779397509
 H          3.7459161007       -2.9310147098        0.8641575894
 H          2.7495842504       -3.2405253499       -0.5703581803
 O          1.7713529306       -1.1110181498       -0.8706969904
 C          1.0207581507        0.0525954303       -0.9511174503
 O          0.1099316305        0.0029202503       -1.7992264501
 O          2.7210228616        1.9533528404        1.6215856490
 C          0.5437120412        2.3996203605       -0.1348487205
 C         -0.8085652987        2.0944415007        0.4575870798
 C         -0.9884675883        2.1662480309        1.8358128699
 C         -2.1907135683        1.7998307212        2.4123581002
 C         -3.2320997585        1.3327812912        1.6288103405
 C         -3.0547226488        1.2432948410        0.2550116604
 C         -1.8607062489        1.6451055208       -0.3261037199
 H         -1.7365806092        1.5595664206       -1.3936859699
 N         -4.0891454391        0.7118575011       -0.5474465493
 S         -4.5093581492       -0.8753115588       -0.2057352090
 O         -5.2210060796       -1.3467226689       -1.3722662087
 O         -5.2420330389       -0.9033511486        1.0357275212
 C         -2.9673954493       -1.7519329890       -0.0183744792
 C         -2.3589502796       -2.2707787592       -1.1428800093
 C         -1.1410039197       -2.9159828494       -1.0096050295
 C         -0.5489170394       -3.0167658993        0.2389372104
 C         -1.1670035891       -2.4811718991        1.3578157605
 C         -2.3904680190       -1.8442687789        1.2322737107
 H         -2.9066222288       -1.4263409888        2.0807916207
 H         -0.6972747289       -2.5544748090        2.3259475604
 H          0.4034170505       -3.5130203394        0.3418229202
 H         -0.6511282000       -3.3229600996       -1.8793944795
 H         -2.8493986998       -2.1712344193       -2.0979594492
 H         -3.8860923193        0.7879948609       -1.5349683393
 H         -4.1680383484        1.0161406514        2.0601846107
 H         -2.3171940880        1.8695258613        3.4821437202
 H         -0.1655870581        2.4989455509        2.4525948096
 H          1.0671099115        3.0875912905        0.5421505093
 C          0.4820905510        3.0254459403       -1.5122060306
 C          0.0111074412        4.4415502204       -1.6494779207
 C          1.4550676311        4.1071140001       -1.8696147009
 H          1.8446594309        4.1371324100       -2.8762372810
 H          2.1695316713        4.4070324401       -1.1170454411
 H         -0.5926832790        4.7048757104       -2.5044658405
 H         -0.2557098285        4.9668739505       -0.7449302107
 H          0.2167586607        2.3262090003       -2.2951522604
