  62
        -98.94378923
 C          1.9051027305        1.2646915406        0.3281980499
 C          1.9193364577        0.1903846208       -0.5943190615
 C          3.2487571953       -0.3302955968       -0.9462001593
 C          4.3444892041        0.2382694856       -0.4110531291
 C          5.7515468177       -0.2320127979       -0.6373289448
 C          6.1714127046       -1.2559120362        0.4267645386
 C          5.1568262209       -2.3799989322        0.6375742220
 H          5.5719071376       -3.0559996782        1.3883933536
 H          4.2397162471       -1.9599412274        1.0572524112
 C          4.8146088863       -3.1731767317       -0.6314111374
 H          5.5818554436       -3.0088206009       -1.3889530586
 H          4.8205203805       -4.2383423490       -0.3904335728
 C          3.4402961169       -2.8583166700       -1.2251664784
 H          2.6778020214       -2.9339708826       -0.4454075919
 H          3.2137034481       -3.6186188882       -1.9774966590
 C          3.3046469743       -1.4885750155       -1.9020584326
 H          4.1108401557       -1.3545445502       -2.6260311538
 H          2.3527477679       -1.4793299273       -2.4406931079
 H          7.1333880021       -1.6818712614        0.1359667169
 H          6.3051159088       -0.7332059935        1.3768556797
 H          5.8280177648       -0.6718249512       -1.6297788156
 H          6.4168239958        0.6311887536       -0.5799921979
 O          4.2909961005        1.2883435625        0.4482204707
 C          3.0745554619        1.8173077607        0.8492020289
 O          3.1645574864        2.7616761919        1.6604150201
 O          0.8815445836       -0.3105596777       -1.0962074489
 C          0.5850991056        1.8654094301        0.7714624444
 C         -0.3158564542        0.8220714057        1.3883218399
 C          0.2261496681       -0.2287034697        2.1220698588
 C         -0.5832544547       -1.2031045225        2.6755647760
 C         -1.9577926487       -1.1436674173        2.5261518438
 C         -2.5119161915       -0.0846599805        1.8227546952
 C         -1.6961747510        0.8888890672        1.2595725547
 H         -2.1464969295        1.7012098725        0.7095791059
 N         -3.9175758574       -0.0283342387        1.6733790081
 S         -4.5657834840       -1.1063073561        0.5631594570
 O         -5.9953546656       -0.8959233371        0.5935854609
 O         -4.1028511842       -2.4313314206        0.8828371116
 C         -3.9080806276       -0.5585192677       -1.0010450871
 C         -2.5906539275       -0.8387752513       -1.3031353721
 C         -2.0426565907       -0.3131805185       -2.4626629559
 C         -2.8198525293        0.4739901197       -3.2981855381
 C         -4.1455424957        0.7383780301       -2.9859844169
 C         -4.6944237881        0.2274654355       -1.8213110491
 H         -5.7164941083        0.4153682378       -1.5338688673
 H         -4.7471512315        1.3483043617       -3.6408370052
 H         -2.3873952698        0.8853593852       -4.1970615673
 H         -1.0031569138       -0.5039772126       -2.6768156888
 H         -2.0016261843       -1.4503989711       -0.6392047781
 H         -4.2571115475        0.8994387713        1.4571172075
 H         -2.6037994907       -1.9055279042        2.9303870654
 H         -0.1398072764       -2.0173888721        3.2289883010
 H          1.2995391469       -0.2815831183        2.2452108348
 H          0.8334052330        2.6042419506        1.5482223538
 C         -0.0688261813        2.5829421995       -0.3945286252
 C         -0.8591472172        3.8375933023       -0.1767689348
 C          0.4865096713        3.9033501737       -0.8327434672
 H          0.5384931170        4.1173678218       -1.8894859066
 H          1.3144094065        4.3036437311       -0.2651972413
 H         -1.7326709269        4.0094513594       -0.7880669572
 H         -0.9443898351        4.2101475551        0.8332316019
 H         -0.4005354812        1.8977450218       -1.1664565994
