  62
        -98.94292533
 C         -2.0395638293       -0.9546547115        0.4568832142
 C         -2.7097357169        0.1006389673        1.1305133044
 C         -4.1370249175        0.2608835044        0.8363276694
 C         -4.7403510970       -0.5913535802       -0.0116084110
 C         -6.1950869367       -0.5808721483       -0.3953492028
 C         -6.5352311050        0.3997538597       -1.5259351405
 C         -6.5110383631        1.8777004576       -1.1341232414
 H         -6.9777854491        2.4332401197       -1.9499421107
 H         -7.1252279307        2.0273382162       -0.2456021910
 C         -5.1055295035        2.4459105975       -0.8920797483
 H         -4.3605097029        1.7778298186       -1.3306348340
 H         -5.0088501478        3.4083795419       -1.3995998308
 C         -4.7579887856        2.6740866151        0.5791555266
 H         -5.4124938076        3.4430298048        0.9958149550
 H         -3.7295971149        3.0408128649        0.6354595332
 C         -4.8610678017        1.4183092797        1.4546219166
 H         -4.3880883672        1.6309897497        2.4166350562
 H         -5.9069116909        1.1647532302        1.6274360294
 H         -5.8434551235        0.2314748918       -2.3544208403
 H         -7.5404638046        0.1557034954       -1.8770338976
 H         -6.4347303279       -1.5915854525       -0.7324770373
 H         -6.8031221462       -0.3531872156        0.4806535650
 O         -4.0726349019       -1.6046621172       -0.6187784341
 C         -2.7114346046       -1.8015175263       -0.4255237992
 O         -2.2534591654       -2.7515225291       -1.0894557524
 O         -2.1395110905        0.8690197604        1.9515606418
 C         -0.5587373343       -1.1144693547        0.7549272652
 C          0.3005337438       -0.4652741071       -0.3040555264
 C          0.2485732443       -0.8702688414       -1.6345594666
 C          1.0475932962       -0.2602954096       -2.5836667556
 C          1.9286168890        0.7452328689       -2.2240386838
 C          1.9932188678        1.1523288698       -0.8976850861
 C          1.1740319894        0.5527405567        0.0500519289
 H          1.2282758643        0.8905859166        1.0740390675
 N          2.8878342400        2.1627977776       -0.4926350245
 S          4.0181119261        1.7811114741        0.6830878965
 O          3.3549858393        1.4888136756        1.9269577713
 O          4.9429647915        2.8919119882        0.6890647528
 C          4.8257015754        0.3210011557        0.0512376139
 C          4.2308456378       -0.9108450537        0.2398738983
 C          4.8203294466       -2.0307399261       -0.3249937386
 C          5.9871951827       -1.9016782881       -1.0624980977
 C          6.5742902944       -0.6578764196       -1.2394627514
 C          5.9862134876        0.4667650919       -0.6836836512
 H          6.4088471774        1.4525127496       -0.7930782681
 H          7.4835929483       -0.5611452508       -1.8105366697
 H          6.4412223583       -2.7765679188       -1.5003539038
 H          4.3612422565       -2.9966781844       -0.1888153146
 H          3.3246834524       -0.9776356617        0.8192492103
 H          3.3481898575        2.6283242559       -1.2625715580
 H          2.5569185534        1.2161473089       -2.9650727051
 H          0.9912419984       -0.5781362712       -3.6136730150
 H         -0.4324067971       -1.6584768691       -1.9163455252
 H         -0.3978074408       -0.5632640575        1.6920096543
 C         -0.1319475213       -2.5533937871        0.9712953022
 C          1.0594449707       -2.8329095581        1.8356976198
 C         -0.3168911295       -3.1755522906        2.3209508815
 H         -0.6052878314       -4.2145168199        2.3732642748
 H         -0.7503413974       -2.5630227620        3.0984727734
 H          1.7208010954       -3.6394979168        1.5592715657
 H          1.5567648670       -1.9901468487        2.2942318234
 H         -0.2916233494       -3.1854796268        0.1077564070
