  62
        -98.94248729
 C         -1.9794748474       -1.1322638066       -0.1490450557
 C         -1.0849917744       -1.8333141220       -0.9871168993
 C         -0.0574696073       -2.6464744650       -0.3179525286
 C         -0.0225712632       -2.6716360011        1.0261931213
 C          1.0061826309       -3.3408745439        1.8952567834
 C          2.1253471713       -2.3457067113        2.2519251736
 C          3.2822216966       -2.2950098388        1.2549121909
 H          3.9385083192       -1.4787559763        1.5662259189
 H          3.8542504575       -3.2237032581        1.3158310853
 C          2.8679510642       -2.0605757058       -0.1996026766
 H          2.0888112778       -1.2955171598       -0.2286287034
 H          3.7304811107       -1.6605624794       -0.7359409428
 C          2.3889409958       -3.3372225883       -0.9059605911
 H          2.6611019972       -4.2011630349       -0.2997802620
 H          2.9182460970       -3.4430279038       -1.8547908112
 C          0.8876155124       -3.3852969819       -1.2266828560
 H          0.7135307691       -2.9498507432       -2.2155142527
 H          0.5679731394       -4.4312092684       -1.2827636570
 H          1.6775378828       -1.3511162987        2.3347233168
 H          2.5302397663       -2.6066167016        3.2323805534
 H          0.4964397605       -3.6372297996        2.8143958463
 H          1.4054553466       -4.2281113557        1.4119326735
 O         -0.9284156486       -2.0128525641        1.7984995183
 C         -1.8959053985       -1.1975958978        1.2421707133
 O         -2.6222728500       -0.6143711972        2.0709562210
 H         -0.5490993451        0.8546761844       -0.5309233158
 C         -1.2989962652        1.5891078681       -0.2772111976
 C         -2.6406248136        1.2340212053       -0.3505664993
 C         -3.5965630101        2.1869939367       -0.0262306416
 C         -3.2091406044        3.4476612817        0.3965674645
 C         -1.8722209367        3.7745057666        0.5251431899
 C         -0.9061971279        2.8313290288        0.1891791973
 N          0.4631475986        3.1267187944        0.3012490003
 S          1.5612133119        2.0169833302        0.9210676393
 O          0.9075933415        0.8289632874        1.4124942258
 O          2.3578076177        2.7508690598        1.8842781599
 C          2.6068669908        1.6046563425       -0.4635339879
 C          3.9436269111        1.3652939728       -0.2091210255
 C          4.7763830040        1.0047162685       -1.2561091660
 C          4.2598865295        0.8860901370       -2.5372731480
 C          2.9175038292        1.1330398199       -2.7781580342
 C          2.0802593076        1.4973746549       -1.7346173087
 H          1.0337916050        1.6963468810       -1.9005934337
 H          2.5140013219        1.0413861421       -3.7738748066
 H          4.9056496818        0.6009922661       -3.3527119245
 H          5.8211986899        0.8156300797       -1.0688563819
 H          4.3019517358        1.4738921979        0.8016859307
 H          0.6564896784        4.0424344992        0.6803801449
 H         -1.5734861841        4.7468718224        0.8868600214
 H         -3.9608528877        4.1794908944        0.6510739214
 H         -4.6436735134        1.9399144620       -0.0903906856
 C         -2.9746448785       -0.1751789046       -0.7793651371
 H         -2.8106221926       -0.2551524646       -1.8649712001
 C         -4.4005715964       -0.5784912840       -0.4715578532
 C         -5.4984708658       -0.2849765210       -1.4490791825
 C         -5.0218568183       -1.6924339905       -1.2582891252
 H         -5.6625022642       -2.3919490714       -0.7427899014
 H         -4.4229842980       -2.1413772730       -2.0372077028
 H         -6.4722277195       -0.0194613915       -1.0658622577
 H         -5.2311120616        0.2184944872       -2.3658103078
 H         -4.6262810103       -0.5270825423        0.5876403907
 O         -1.1278495554       -1.7617596912       -2.2473236907
