  62
        -98.94417320
 C         -2.6284155547       -1.1025271701        0.1980136218
 C         -2.7378131063       -0.3016317485       -0.9646983323
 C         -3.5656551206        0.9062645658       -0.8321866359
 C         -4.1594252497        1.1741740879        0.3451966440
 C         -4.9794927038        2.3978149939        0.6333170180
 C         -4.1084062720        3.5295691291        1.1966481053
 C         -2.8408634265        3.7957619607        0.3842788870
 H         -2.1832208131        2.9258232901        0.4540241277
 H         -2.3195969382        4.6301849867        0.8587695470
 C         -3.0915521749        4.1220192291       -1.0947154836
 H         -2.4714688628        4.9762875645       -1.3741269552
 H         -4.1318865773        4.4164933120       -1.2369300990
 C         -2.7493161052        2.9867895260       -2.0615779970
 H         -1.7377685625        2.6246455886       -1.8600151505
 H         -2.7553044336        3.3921738622       -3.0767221172
 C         -3.7025292031        1.7851040310       -2.0435667040
 H         -3.4541851992        1.1523837692       -2.9005814657
 H         -4.7323716306        2.1295915978       -2.1563180568
 H         -3.8133325036        3.2655717918        2.2151166898
 H         -4.7103627008        4.4388131904        1.2431095706
 H         -5.4699039938        2.7236861220       -0.2817505934
 H         -5.7407866729        2.1363536097        1.3701733909
 O         -4.0342723331        0.3771976018        1.4381697669
 C         -3.2570278945       -0.7696152517        1.3965633073
 O         -3.2011439334       -1.3937773290        2.4768338934
 H         -0.3330756991       -0.3223037128        1.0764446594
 C          0.2425194118       -0.9263793880        0.3841365767
 C         -0.3569281260       -2.0335882461       -0.2038265814
 C          0.4002960308       -2.8096806217       -1.0714382319
 C          1.7117225325       -2.4685969066       -1.3547114010
 C          2.2959712255       -1.3535814616       -0.7834474258
 C          1.5528147012       -0.5773443784        0.0964721612
 N          2.1355246122        0.5644937410        0.6764171794
 S          3.6058625140        0.3764778183        1.4681870556
 O          3.7447555551       -0.9538222806        2.0145329515
 O          3.6669464920        1.4692210490        2.4145216334
 C          4.8190143729        0.6437889899        0.1931392365
 C          5.7959608856       -0.3050407045       -0.0365152236
 C          6.7379322502       -0.0703016749       -1.0262082106
 C          6.6862787801        1.1023933532       -1.7640005104
 C          5.6996074442        2.0461261227       -1.5192841437
 C          4.7561051374        1.8187023511       -0.5302351948
 H          3.9755235482        2.5268233821       -0.3069823223
 H          5.6621216502        2.9565719986       -2.0954955615
 H          7.4192503385        1.2823565674       -2.5344960445
 H          7.5058363189       -0.8023861727       -1.2177986865
 H          5.7919540941       -1.2048272323        0.5576876844
 H          1.4971822347        1.0961197667        1.2504753413
 H          3.3138720494       -1.0802165574       -1.0084533731
 H          2.2859785996       -3.0785886758       -2.0350747387
 H         -0.0376685225       -3.6814950767       -1.5287878449
 C         -1.7837783842       -2.3625467219        0.1666095795
 H         -1.7820222017       -2.7541399292        1.1952619570
 C         -2.4208692985       -3.3921023543       -0.7443029215
 C         -2.2677650562       -4.8550664832       -0.4593004997
 C         -3.5869689647       -4.1815436287       -0.2329100565
 H         -4.4013180268       -4.3964056856       -0.9083351823
 H         -3.9014429066       -3.9960173482        0.7842704315
 H         -1.6898916915       -5.1388221935        0.4074698232
 H         -2.1797146212       -5.5365480721       -1.2919974903
 H         -2.4497544887       -3.0691096773       -1.7784796435
 O         -2.1729764810       -0.5773384881       -2.0541642473
