  62
        -98.94486443
 C         -1.8611596295       -1.0616066097       -0.2024743593
 C         -3.0145745198       -1.1614656892        0.6217063703
 C         -4.2424313696       -0.5391236496        0.1132372594
 C         -4.2198807592        0.0677560395       -1.0869680711
 C         -5.3802049390        0.7881710890       -1.7083058620
 C         -5.3771000392        2.2757860892       -1.3293655332
 C         -5.2058674198        2.5313327404        0.1682020267
 H         -4.2088653199        2.2056245007        0.4744847573
 H         -5.2501054299        3.6119418705        0.3208023759
 C         -6.2566399001        1.8462677410        1.0532530368
 H         -7.1187470499        1.5592085005        0.4500871467
 H         -6.6071043604        2.5632482515        1.7986531562
 C         -5.7430091503        0.6243487816        1.8172095880
 H         -4.8241148405        0.8846027920        2.3488085581
 H         -6.4902168806        0.3546753621        2.5682932879
 C         -5.4730356200       -0.6262296490        0.9710810190
 H         -5.3016877802       -1.4607699085        1.6572136397
 H         -6.3506813097       -0.8556144695        0.3632777288
 H         -6.3129127491        2.7213158889       -1.6716705438
 H         -4.5549439191        2.7660997989       -1.8560467132
 H         -5.3007571386        0.6983437981       -2.7930536619
 H         -6.3075163991        0.3213950392       -1.3818513120
 O         -3.1059198089        0.1317361589       -1.8558940707
 C         -1.9007601491       -0.4142782207       -1.4372651998
 O         -0.9760495688       -0.2477529713       -2.2593051596
 H          0.6451418107        0.3512272898       -0.9131568195
 C          0.9161628603        0.2937640706        0.1305378307
 C          0.3507574901       -0.6924194488        0.9266420712
 C          0.7033505196       -0.7437923678        2.2698998714
 C          1.5989678093        0.1688727827        2.8008996210
 C          2.1618673296        1.1489045121        2.0034905205
 C          1.8089634201        1.2118726011        0.6617498603
 N          2.3944859003        2.1946982905       -0.1655730602
 S          4.0668157604        2.1093043805       -0.2704100795
 O          4.6451431599        2.7090136014        0.9059416202
 O          4.4156525408        2.7241485596       -1.5314328399
 C          4.4135588405        0.3597907105       -0.2961639681
 C          4.0658131109       -0.3533309104       -1.4261609577
 C          4.2520062410       -1.7256691504       -1.4360062566
 C          4.7722773606       -2.3590342995       -0.3177408359
 C          5.1162942402       -1.6287620987        0.8088592037
 C          4.9336571901       -0.2553250286        0.8241266226
 H          5.1862298997        0.3503805420        1.6787447422
 H          5.5205148499       -2.1249241380        1.6762578442
 H          4.9107374207       -3.4287861495       -0.3253907550
 H          3.9851106813       -2.2938962611       -2.3129176862
 H          3.6648162412        0.1716037990       -2.2788564382
 H          1.9936392907        2.2067090398       -1.0932841804
 H          2.8687587594        1.8632007324        2.3938697602
 H          1.8628158589        0.1157660535        3.8459911212
 H          0.2625873794       -1.5010966973        2.9014686318
 C         -0.5935030497       -1.7086378693        0.3305343216
 H         -0.9322444699       -2.3659163387        1.1423681920
 C          0.1318450808       -2.5534258700       -0.6999297575
 C          1.0695185306       -3.6230815896       -0.2304459963
 C         -0.2386568891       -3.9958821902       -0.8597954665
 H         -0.2354689787       -4.4203602409       -1.8525350562
 H         -1.0203607493       -4.3846344297       -0.2234758365
 H          1.1766080302       -3.7606952288        0.8345408538
 H          1.9764260209       -3.7914879800       -0.7892791659
 H          0.3969639711       -2.0065894907       -1.5950996278
 O         -3.0151004802       -1.7547225983        1.7330129008
