  62
        -98.93976920
 C         -0.7723073053       -1.9057274737        0.3808336403
 C         -1.3564596718       -0.7996328249        1.0401004591
 C         -2.6590766900       -0.3269883710        0.5321836956
 C         -3.2009223280       -0.9484938049       -0.5317018430
 C         -4.4786357926       -0.6176160514       -1.2564496451
 C         -4.3378548454        0.6167098801       -2.1600484032
 C         -3.6433218181        1.8093005013       -1.5082204333
 H         -3.5369103922        2.5845272867       -2.2714285624
 H         -2.6383647901        1.5161633787       -1.1990843811
 C         -4.3843983661        2.4185677898       -0.3206164650
 H         -5.3899815863        2.7060267599       -0.6354114959
 H         -3.8517660415        3.3299083907       -0.0412310085
 C         -4.4981445428        1.5347698644        0.9246241781
 H         -5.3010719962        0.8093434557        0.8215241914
 H         -4.7760524050        2.1835789384        1.7601981142
 C         -3.2077661043        0.8299530860        1.3314046945
 H         -3.3278136784        0.4476814769        2.3523068709
 H         -2.3964088251        1.5630921818        1.3913737040
 H         -5.3334965823        0.9105942211       -2.4972744311
 H         -3.7555166640        0.3280025390       -3.0386192187
 H         -5.2910519106       -0.4871219092       -0.5482161974
 H         -4.7166274402       -1.4812476873       -1.8814051356
 O         -2.5879099951       -1.9974571603       -1.1514410795
 C         -1.3694994310       -2.4971528083       -0.7317601929
 O         -0.9435168316       -3.4465728504       -1.4164606924
 O         -0.8126675774       -0.2182153300        2.0181435536
 C          0.5840619812       -2.3996061176        0.8557081240
 C          1.6039998622       -2.0146128324       -0.1869007898
 C          2.2526867366       -2.9273464568       -1.0074920445
 C          3.1304849124       -2.4858981102       -1.9825818024
 C          3.3922714711       -1.1379066935       -2.1440214902
 C          2.7532333972       -0.2163001117       -1.3214724103
 C          1.8620070963       -0.6591909012       -0.3588695739
 H          1.3593354247        0.0582429273        0.2744694499
 N          2.9845684945        1.1617722503       -1.4572658440
 S          3.1768360304        2.0878725211       -0.0740919782
 O          3.9312424737        3.2424432159       -0.5180703651
 O          3.7722886475        1.3215042371        0.9957487438
 C          1.5441615997        2.6332404668        0.3736015179
 C          1.1762097345        2.6299219794        1.7037254268
 C         -0.0580684243        3.1478428619        2.0598039307
 C         -0.8979122044        3.6582638302        1.0825357265
 C         -0.5194478575        3.6426470879       -0.2517437555
 C          0.7154177533        3.1295211821       -0.6130654528
 H          1.0465573962        3.1069378049       -1.6381737608
 H         -1.1818161511        4.0304195028       -1.0091847642
 H         -1.8532395324        4.0730155562        1.3651520259
 H         -0.3604135564        3.1435184786        3.0946078867
 H          1.8558369591        2.2156105292        2.4312424572
 H          3.6651331437        1.4085178697       -2.1616203418
 H          4.0826071462       -0.7972450233       -2.9010042751
 H          3.6229049416       -3.2033557462       -2.6215784078
 H          2.0590845643       -3.9810387881       -0.8948408266
 H          0.8024970497       -1.8240072400        1.7666589809
 C          0.5700342904       -3.8723627539        1.1995554431
 C          1.6653007939       -4.4393117592        2.0510932721
 C          0.2828524368       -4.2899727838        2.6093671149
 H         -0.3068795299       -5.1794645466        2.7728368197
 H          0.1063505247       -3.5097109720        3.3353487484
 H          2.0270109515       -5.4327866645        1.8340358514
 H          2.4291077774       -3.7588061871        2.3969350190
 H          0.1674455075       -4.4912667504        0.4068612290
