  62
        -98.93740384
 C          2.2728714556        0.3070477279        0.4146599085
 C          2.9395243342       -0.8624282615       -0.0334323254
 C          4.2255552799       -0.6656798092       -0.7125398393
 C          4.6859092597        0.5860447888       -0.8897763672
 C          6.0032574077        0.9359490259       -1.5175728909
 C          7.1136497882        1.0346130941       -0.4622052973
 C          7.1681854653       -0.1596953230        0.4904062101
 H          8.0063547234        0.0045397130        1.1710879877
 H          6.2598293952       -0.1734805215        1.0972202596
 C          7.3325343920       -1.5186810672       -0.2043675123
 H          7.6948541095       -1.3731480891       -1.2226362148
 H          8.0900868909       -2.0959851559        0.3298722660
 C          6.0631479748       -2.3719945865       -0.2362689672
 H          5.6438176159       -2.4433424453        0.7706360351
 H          6.3406653514       -3.3829561679       -0.5466418758
 C          4.9583454815       -1.8896918423       -1.1849295222
 H          5.3742017500       -1.7285851457       -2.1816360260
 H          4.2066579334       -2.6818612696       -1.2501003403
 H          8.0709076490        1.1355194395       -0.9767593860
 H          6.9491466119        1.9375520845        0.1302488754
 H          6.2578235485        0.1806136025       -2.2585210522
 H          5.9008812945        1.9014319876       -2.0156641550
 O          4.0115931612        1.6839783713       -0.4702025802
 C          2.7916325999        1.5836388138        0.1904995599
 O          2.3038759857        2.6834785810        0.5028544890
 H         -1.0230529196       -1.7207655611        0.9164447816
 C         -1.1521864411       -0.8994602122        0.2237964867
 C         -0.2102655310        0.1181206139        0.1844738458
 C         -0.3903386943        1.1566894042       -0.7240170598
 C         -1.4925432116        1.1772883168       -1.5598239476
 C         -2.4408629376        0.1698023907       -1.5007048021
 C         -2.2632506598       -0.8746515971       -0.6053995474
 N         -3.2700401030       -1.8747395870       -0.5124144054
 S         -4.4528000368       -1.4388742299        0.6124692168
 O         -3.8493040948       -0.9379671328        1.8286989385
 O         -5.3060820718       -2.5964146444        0.7610628151
 C         -5.3176840166       -0.1314855383       -0.2229737246
 C         -6.2230064910       -0.4629578772       -1.2120682228
 C         -6.8694865164        0.5557101536       -1.8936209341
 C         -6.5971624627        1.8788724691       -1.5783954185
 C         -5.6855294091        2.1939538273       -0.5820422247
 C         -5.0363161718        1.1801131612        0.1046360082
 H         -4.3195314861        1.3786639642        0.8854841373
 H         -5.4743737901        3.2229575368       -0.3392089198
 H         -7.0990752315        2.6705711532       -2.1120502555
 H         -7.5797929647        0.3161605476       -2.6685096180
 H         -6.4043350939       -1.5044666055       -1.4200037478
 H         -2.8959565258       -2.7748668779       -0.2403046090
 H         -3.3035499946        0.1783836047       -2.1466523924
 H         -1.6179593560        1.9896444266       -2.2590176107
 H          0.3409911668        1.9504369293       -0.7596751230
 C          0.9556879686        0.0932552913        1.1374980016
 H          1.0236238465       -0.9308326460        1.5398585454
 C          0.7476595502        1.0217462898        2.3260552285
 C         -0.2037477272        2.1761668006        2.3292232909
 C         -0.5206396833        0.9483197265        3.1258192884
 H         -0.4548770720        0.9969388208        4.2025005698
 H         -1.3117515649        0.3053354419        2.7650950104
 H          0.1025780453        3.0719290490        2.8472152702
 H         -0.7790231990        2.3673723426        1.4376188907
 H          1.6660895593        1.1608600283        2.8882892853
 O          2.4761507458       -2.0236214792        0.1361797313
