  62
        -98.94479160
 C         -1.9500580963       -1.1148836745       -0.2534322848
 C         -3.0680057914       -1.1771299122        0.6216226916
 C         -4.2929561781       -0.5051047416        0.1727461552
 C         -4.3028178708        0.1055576888       -1.0256886749
 C         -5.4630659336        0.8704345504       -1.5916581087
 C         -5.3875621247        2.3559881109       -1.2122986974
 C         -5.1363059208        2.6017492034        0.2755735045
 H         -4.1382703954        2.2396325636        0.5339359288
 H         -5.1340369844        3.6829383556        0.4304757748
 C         -6.1679677180        1.9535203016        1.2095078375
 H         -7.0683868316        1.7008506242        0.6483895283
 H         -6.4547921948        2.6808733868        1.9718937372
 C         -5.6644923545        0.7109527284        1.9465090675
 H         -4.7113825565        0.9347916057        2.4325528651
 H         -6.3837070610        0.4681991735        2.7332486013
 C         -5.4842737128       -0.5470139307        1.0874915453
 H         -5.3133774431       -1.3895824083        1.7638502846
 H         -6.3980094225       -0.7401461674        0.5217515922
 H         -6.3216542870        2.8361654012       -1.5096007117
 H         -4.5739236007        2.8173050560       -1.7770329832
 H         -5.4373495517        0.7805261331       -2.6790045594
 H         -6.3908591542        0.4373413322       -1.2228919409
 O         -3.2235974488        0.1314055318       -1.8447982389
 C         -2.0208028763       -0.4578868099       -1.4816981579
 O         -1.1271904121       -0.3169356156       -2.3421459153
 H          0.5515690497        0.2500803039       -1.0333822914
 C          0.8582694389        0.1695207310       -0.0011228856
 C          0.3074898593       -0.8236804430        0.7965926126
 C          0.7081496231       -0.9076026472        2.1246962050
 C          1.6317434886       -0.0151470615        2.6416267518
 C          2.1746302346        0.9765126844        1.8451200160
 C          1.7777983592        1.0692801662        0.5169459036
 N          2.3339745318        2.0680097641       -0.3048769083
 S          4.0072262745        2.1509821113       -0.3321475109
 O          4.4685349522        2.8997476244        0.8106178164
 O          4.3495440125        2.7007739257       -1.6249272277
 C          4.5438577890        0.4544674060       -0.1998944935
 C          5.2507939925        0.0373080946        0.9090965528
 C          5.6052657427       -1.2982769316        1.0137662363
 C          5.2431222383       -2.1892405190        0.0157922589
 C          4.5350974061       -1.7535153852       -1.0938259057
 C          4.1791366932       -0.4197356624       -1.2047490151
 H          3.6298682670       -0.0498679945       -2.0561040771
 H          4.2544251571       -2.4466529599       -1.8705970026
 H          5.5135342782       -3.2298052902        0.1011779465
 H          6.1571575086       -1.6398436975        1.8744823879
 H          5.5075624076        0.7630095475        1.6633522885
 H          1.9585494132        2.0640156566       -1.2424741980
 H          2.8931637510        1.6829225963        2.2284364495
 H          1.9314358776       -0.0916052300        3.6754955306
 H          0.2799403297       -1.6716006136        2.7567581570
 C         -0.6831343842       -1.8075726917        0.2210632713
 H         -1.0096406627       -2.4662765554        1.0367709039
 C         -0.0244978509       -2.6592006643       -0.8476433747
 C          0.9090165179       -3.7539588379       -0.4302979368
 C         -0.4355703834       -4.0915821659       -0.9998911829
 H         -0.4889411675       -4.5084317440       -1.9944742246
 H         -1.1953418195       -4.4672261717       -0.3299787560
 H          1.0633199584       -3.9033049939        0.6273082031
 H          1.7837400953       -3.9412489533       -1.0331923083
 H          0.2098835623       -2.1115561846       -1.7508717475
 O         -3.0408044880       -1.7776739353        1.7286512731
