  62
        -98.93840394
 C          1.7864774705        1.0709049291        0.2294843692
 C          2.0270157601       -0.2387991109       -0.2464356309
 C          3.3291118599       -0.8391778013        0.1023896889
 C          4.2043131203       -0.1504564616        0.8570993388
 C          5.5663267502       -0.5290470420        1.3996241285
 C          6.3467546498       -1.7010310923        0.8088553084
 C          6.7910040796       -1.5119891824       -0.6407116117
 H          7.2695680893       -2.4363314726       -0.9720956517
 H          7.5415072598       -0.7181915126       -0.6754549418
 C          5.6839286895       -1.1456259921       -1.6262093115
 H          6.1333684194       -1.0725295622       -2.6202849015
 H          5.2861233899       -0.1586637220       -1.3811995814
 C          4.5274365992       -2.1403312517       -1.7108484813
 H          4.9175898489       -3.1421187218       -1.9006483413
 H          3.9110716792       -1.8536215915       -2.5669439912
 C          3.6071601794       -2.1960834014       -0.4778552911
 H          4.0035959693       -2.8627719715        0.2844692688
 H          2.6419301492       -2.6004716811       -0.7957963709
 H          5.7827223195       -2.6232122021        0.9139891585
 H          7.2479992499       -1.8109005325        1.4182934183
 H          6.1746980105        0.3778892778        1.3256725584
 H          5.4207816104       -0.7158346820        2.4695846386
 O          3.9161969707        1.0993980785        1.3224800188
 C          2.7310139009        1.7380240889        1.0154079890
 O          2.6347420913        2.8871821789        1.4902862390
 H         -0.6368321900       -0.5747804401        0.1272255496
 C         -1.1121229997        0.1465103700        0.7756115897
 C         -0.6280965392        1.4465012599        0.8141001896
 C         -1.2481180988        2.3598950101        1.6581068797
 C         -2.3242720088        1.9801700704        2.4422455099
 C         -2.8026310992        0.6824980706        2.4021549000
 C         -2.1845367596       -0.2375490596        1.5659792399
 N         -2.6751228401       -1.5627534695        1.5049225400
 S         -4.1948695002       -1.7109542290        0.8120694302
 O         -5.1682862799       -1.1229951087        1.6967804504
 O         -4.3619382807       -3.1161539390        0.5189949403
 C         -4.0841420802       -0.7661937191       -0.6960315998
 C         -3.6184358706       -1.3922024992       -1.8347120299
 C         -3.4494026105       -0.6449068593       -2.9888384299
 C         -3.7348476101        0.7116237308       -2.9786382399
 C         -4.1940460997        1.3272955710       -1.8246092098
 C         -4.3713105798        0.5838243210       -0.6691823898
 H         -4.7308471595        1.0239059911        0.2463236603
 H         -4.4100667694        2.3834491510       -1.8190671498
 H         -3.6007997701        1.2914193008       -3.8786399399
 H         -3.0897638308       -1.1201296694       -3.8874924700
 H         -3.4089224309       -2.4495601593       -1.8002830399
 H         -2.0374647303       -2.1843952397        1.0258285299
 H         -3.6483385692        0.3706982208        2.9936110901
 H         -2.7949098585        2.7016721006        3.0926700499
 H         -0.8743220885        3.3723397000        1.7048964196
 C          0.5220108407        1.8616077695       -0.0708804006
 H          0.7684787011        2.9045395195        0.1683229593
 C          0.1115274105        1.7896372196       -1.5300640305
 C         -0.7036660893        2.9037507399       -2.1100464804
 C          0.7309070406        2.7369814194       -2.5107445907
 H          0.9544564303        2.3765605094       -3.5035167307
 H          1.4539672709        3.4453085892       -2.1321575608
 H         -0.9543186589        3.7297034400       -1.4620642904
 H         -1.4693525895        2.6573177701       -2.8282749703
 H         -0.0932505899        0.7835735197       -1.8709708005
 O          1.2066736997       -0.9098234907       -0.9297570707
