  62
        -98.93039609
 C         -2.3669812965       -0.6156669712        0.5543224546
 C         -3.1981612213       -0.4778951991       -0.5843040318
 C         -4.2998060176        0.4921090467       -0.4584962393
 C         -4.4401406265        1.2106047958        0.6685992045
 C         -5.4642067041        2.2819827750        0.9358850097
 C         -6.9345105688        1.8236643257        0.9862895268
 C         -7.6848182712        1.9577303972       -0.3446622561
 H         -8.6967819925        2.3146480261       -0.1425463663
 H         -7.1968636506        2.7251167514       -0.9468009946
 C         -7.8204377354        0.6724625284       -1.1667559838
 H         -8.6102444170        0.0539601883       -0.7341057999
 H         -8.1370181223        0.9516097109       -2.1740558519
 C         -6.5637566368       -0.1926046837       -1.2647045627
 H         -6.7348648297       -0.9575903177       -2.0247742740
 H         -6.4098391705       -0.7237491248       -0.3222477136
 C         -5.2737050307        0.5818294597       -1.5975000916
 H         -5.4978654921        1.6217687938       -1.8297391241
 H         -4.7829208109        0.1327900386       -2.4632624344
 H         -7.4358219714        2.4523443984        1.7239664869
 H         -6.9836111563        0.7978792909        1.3507672287
 H         -5.1908843697        2.7083682055        1.9032319972
 H         -5.3553210930        3.0661314440        0.1831927541
 O         -3.5991607338        1.0688676227        1.7305109638
 C         -2.5640972425        0.1527721942        1.7047780431
 O         -1.8928672037        0.1103497150        2.7564739788
 O         -3.0449148433       -1.1117194658       -1.6586869125
 C         -1.1989391525       -1.5864456158        0.6198547829
 C          0.0536238357       -0.9387367086        0.0882140773
 C          0.0933043574       -0.3796539513       -1.1856148585
 C          1.2527941895        0.2099637824       -1.6544856598
 C          2.3896768842        0.2616371811       -0.8663812041
 C          2.3600199278       -0.2895037095        0.4070830995
 C          1.1956886174       -0.8876418105        0.8732743326
 H          1.1727834116       -1.3057080261        1.8710849863
 N          3.5046882183       -0.2230648689        1.2180378104
 S          4.9759519114       -0.7130025156        0.5750204335
 O          4.7924734032       -1.7100358007       -0.4536843287
 O          5.7736524382       -1.1037248980        1.7164975225
 C          5.6561957741        0.7747240015       -0.1270918801
 C          5.8263769881        1.8671593158        0.7006132349
 C          6.3611819099        3.0305986782        0.1711191886
 C          6.7171079855        3.0809346237       -1.1685537998
 C          6.5436113572        1.9742711090       -1.9854955345
 C          6.0084846244        0.8074652290       -1.4621051937
 H          5.8518353533       -0.0760357720       -2.0604613985
 H          6.8216689971        2.0152327128       -3.0264176833
 H          7.1327064868        3.9880932423       -1.5780104218
 H          6.4978817806        3.8932108016        0.8032629442
 H          5.5411590477        1.7862795293        1.7362906774
 H          3.3718531196       -0.5972229698        2.1463080960
 H          3.2935782591        0.7237360231       -1.2280432681
 H          1.2715892414        0.6378437064       -2.6453917991
 H         -0.7928814049       -0.4174483384       -1.8007613010
 H         -1.0431765712       -1.7708669693        1.6948594966
 C         -1.5025743171       -2.9323409142       -0.0250490834
 C         -0.8272580521       -3.4424748516       -1.2588179563
 C         -0.5009555722       -4.0455004302        0.0721608517
 H         -0.8507010817       -5.0421822077        0.2950405281
 H          0.4626297538       -3.8101460212        0.5005391265
 H         -1.4259975447       -4.0090929435       -1.9553657086
 H         -0.0806259200       -2.8240299149       -1.7310697138
 H         -2.5445400613       -3.2102455853        0.0959126554
