  62
        -98.94434814
 C          2.6341589107        1.3113858204        0.1193013803
 C          2.5857713104        0.2818553503       -0.8514854396
 C          3.6615613802       -0.7186559499       -0.7775241295
 C          4.6140719603       -0.5990494600        0.1649274704
 C          5.7405581301       -1.5675298702        0.3773455905
 C          5.3564219399       -2.6537362400        1.3915513206
 C          4.0047860098       -3.3104739798        1.1105871807
 H          3.8530957496       -4.0810713896        1.8694927608
 H          3.2116931399       -2.5705047296        1.2428308007
 C          3.8816661096       -3.9377460199       -0.2850564392
 H          4.8734936696       -4.0872649101       -0.7133478692
 H          3.4186072794       -4.9218541398       -0.1868790491
 C          3.0218348397       -3.1394244898       -1.2671679993
 H          2.8223050796       -3.7725730798       -2.1361697892
 H          2.0570631398       -2.9068969496       -0.8073214193
 C          3.6379693800       -1.8334190900       -1.7850743594
 H          3.0145175901       -1.4782262399       -2.6110019194
 H          4.6409459200       -2.0277182802       -2.1707390294
 H          6.1385825398       -3.4149507902        1.3950474907
 H          5.3166981300       -2.2016496999        2.3851384606
 H          6.0061211300       -2.0221714703       -0.5749625094
 H          6.6006596502       -1.0147703303        0.7588365804
 O          4.6323652505        0.4089997201        1.0733563903
 C          3.6393270607        1.3726070603        1.0872550003
 O          3.7618105809        2.2229418004        1.9911458902
 O          1.7015359504        0.1981100404       -1.7449392696
 C          1.5687433109        2.3955697306        0.1669206702
 C          0.2506973108        1.7524440509        0.5224852603
 C          0.0137920907        1.3896822411        1.8459835503
 C         -1.1576412894        0.7497935014        2.2028111804
 C         -2.1144035695        0.4494968415        1.2477731705
 C         -1.8784356094        0.7890157813       -0.0767932895
 C         -0.7086341693        1.4511381210       -0.4298494996
 H         -0.5353259593        1.7001766709       -1.4644616997
 N         -2.8373737495        0.4883351314       -1.0569981995
 S         -3.5953992698       -1.0069336884       -1.0307849693
 O         -2.7580631300       -2.0309244986       -0.4502639692
 O         -4.0348863299       -1.2287524885       -2.3912811293
 C         -5.0257513397       -0.7294507481       -0.0049048393
 C         -5.8394430795        0.3474372721       -0.2983723594
 C         -6.9630684695        0.5696517824        0.4813425406
 C         -7.2555768196       -0.2859294075        1.5330816507
 C         -6.4313309298       -1.3649806076        1.8125431008
 C         -5.3047405199       -1.5918306279        1.0370381808
 H         -4.6322753601       -2.4147551180        1.2212988408
 H         -6.6602361899       -2.0297770475        2.6299888508
 H         -8.1308965096       -0.1108511972        2.1384660907
 H         -7.6061488493        1.4080445825        0.2671588305
 H         -5.5792121194        0.9870153819       -1.1250404395
 H         -2.5454433295        0.7277746512       -1.9936476895
 H         -3.0248489996       -0.0601660083        1.5175920506
 H         -1.3294024294        0.4789601815        3.2335965505
 H          0.7694453008        1.6083615410        2.5883090203
 H          1.8553356110        3.0613892707        0.9918479101
 C          1.5376586310        3.1984305705       -1.1167474499
 C          0.8302999713        4.5190889907       -1.1403637200
 C          2.3267046513        4.4687249103       -1.2017206400
 H          2.8143725013        4.7097799902       -2.1344284500
 H          2.8866058414        4.7673076703       -0.3274758701
 H          0.2890146413        4.7995941407       -2.0310282800
 H          0.3717106914        4.8531868408       -0.2220896100
 H          1.4982682509        2.5827918704       -2.0070555998
