  62
        -98.94414320
 C         -2.1976970361       -0.7803124317       -0.0223363950
 C         -2.8997820254       -0.0790102256        0.9857965417
 C         -3.6930145008        1.0722790954        0.5350725556
 C         -3.6767691472        1.4117907514       -0.7672026937
 C         -4.4765771413        2.5286996893       -1.3714097293
 C         -5.8427096617        2.0297080215       -1.8626881915
 C         -6.6040602430        1.1978230331       -0.8306143603
 H         -7.5639280290        0.9269105837       -1.2754670822
 H         -6.0596496406        0.2680945635       -0.6502114794
 C         -6.8441870336        1.9110013588        0.5073978670
 H         -6.7127539665        2.9864946325        0.3831822126
 H         -7.8792857676        1.7441482810        0.8125999439
 C         -5.9584240091        1.4221928817        1.6549638693
 H         -6.3548041404        1.8302138245        2.5886621611
 H         -6.0159206541        0.3329019254        1.7239485253
 C         -4.4797068986        1.8219871536        1.5733266293
 H         -4.3977735395        2.8996954851        1.4168088796
 H         -4.0160436610        1.5789163479        2.5341943251
 H         -5.6867052432        1.4135998489       -2.7511229585
 H         -6.4428280085        2.8949696054       -2.1498714860
 H         -4.6099202909        3.3156063864       -0.6314955563
 H         -3.9196666883        2.9301636695       -2.2196876939
 O         -2.9555302156        0.7395327640       -1.6999524311
 C         -2.2055835346       -0.3768264749       -1.3579277416
 O         -1.6026358786       -0.9027351543       -2.3110714488
 H          0.0580576876        0.1988392967        0.8223206195
 C          0.6639719286       -0.5644878949        0.3481454884
 C          0.0800132332       -1.7824778510        0.0210148511
 C          0.8744588624       -2.7569148992       -0.5683488027
 C          2.2080831005       -2.5042559209       -0.8407184570
 C          2.7781267049       -1.2834319575       -0.5322013404
 C          1.9972218847       -0.3060163942        0.0712276493
 N          2.5663158675        0.9423836763        0.3830702863
 S          3.9746416810        0.9548717040        1.3000987199
 O          4.0502470604       -0.1994119856        2.1656492193
 O          3.9916475517        2.2477792969        1.9491254438
 C          5.2780139035        0.8966869678        0.0888860429
 C          5.3239637051        1.8933079262       -0.8661478529
 C          6.3357214864        1.8665310202       -1.8125543183
 C          7.2801848723        0.8510177997       -1.7864931080
 C          7.2224241121       -0.1400509524       -0.8186516317
 C          6.2123138281       -0.1196546685        0.1305473656
 H          6.1240329418       -0.8711531419        0.8988154770
 H          7.9578395571       -0.9281924382       -0.8000036204
 H          8.0660369048        0.8325089385       -2.5249772051
 H          6.3840471576        2.6357865444       -2.5663918536
 H          4.5732761570        2.6658343562       -0.8490048966
 H          1.9019566740        1.6064755199        0.7538338329
 H          3.8134628252       -1.0804387575       -0.7516697940
 H          2.8110620282       -3.2690696530       -1.3057287691
 H          0.4488808424       -3.7145487987       -0.8189629879
 C         -1.3748769201       -1.9954685973        0.3623212222
 H         -1.4564448470       -2.0690249929        1.4578325640
 C         -1.9649291748       -3.2469680844       -0.2539410230
 C         -1.8348057560       -4.5683297584        0.4411301604
 C         -3.1619275099       -3.8745498677        0.3931399072
 H         -3.9368991978       -4.2813362209       -0.2390461065
 H         -3.5334974321       -3.4153867170        1.2978995528
 H         -1.7009387644       -5.4557466665       -0.1588461634
 H         -1.3081606956       -4.5881514175        1.3833719035
 H         -1.9331441008       -3.2298917535       -1.3375681602
 O         -2.8592511257       -0.3968306751        2.2063717319
