  62
        -98.94330856
 C          1.7981505406        0.9150786997        0.6682576889
 C          2.7802627306        1.2033783590       -0.3112561814
 C          4.1004037005        0.5973510191       -0.0883002112
 C          4.3215956806       -0.1580405003        1.0015862793
 C          5.6183464606       -0.8259886601        1.3706901496
 C          5.8392176604       -2.1817615706        0.6858246604
 C          6.1679533703       -2.1118044015       -0.8060923797
 H          6.9960808503       -1.4197954416       -0.9621429302
 H          6.5119542102       -3.1041150617       -1.1046052991
 C          4.9840684402       -1.7111171820       -1.6975363498
 H          4.0506246703       -1.8394506216       -1.1440333097
 H          4.9364414101       -2.3784618825       -2.5610382594
 C          5.0495940103       -0.2807218823       -2.2328743607
 H          5.9083422202       -0.1784906428       -2.8999986309
 H          4.1443323602       -0.0920684026       -2.8152891907
 C          5.1455642304        0.7960776684       -1.1444589714
 H          6.1406175105        0.7958299286       -0.7004492015
 H          4.9678734205        1.7691407381       -1.6085033420
 H          4.9485761904       -2.7970562604        0.8344423308
 H          6.6706861105       -2.6728886703        1.1967785106
 H          6.4515107106       -0.1610297103        1.1413151291
 H          5.5884597707       -0.9867112894        2.4505723097
 O          3.3597358107       -0.3895794996        1.9350544895
 C          2.0812958507        0.1191988604        1.7819939593
 O          1.2976446008       -0.1909572490        2.7030744596
 H         -1.2365062494       -0.6868763799        0.9708163502
 C         -1.1622796895       -0.4370035006       -0.0776534000
 C         -0.3740917295        0.6328684491       -0.4812273507
 C         -0.2714212596        0.9123640683       -1.8400626809
 C         -0.9385007798        0.1319219678       -2.7663912904
 C         -1.7356949698       -0.9234847919       -2.3598706196
 C         -1.8446785497       -1.2118447811       -1.0049907194
 N         -2.6500151197       -2.2760767408       -0.5585612287
 S         -3.7551385996       -1.9739198900        0.6620284812
 O         -3.0836103894       -1.8451741792        1.9293292811
 O         -4.7179782196       -3.0485002200        0.5549111320
 C         -4.5107324995       -0.4279964202        0.1923125903
 C         -4.1038976094        0.7478853401        0.7888355496
 C         -4.6566087893        1.9430664599        0.3555823089
 C         -5.5958094694        1.9419524793       -0.6638000010
 C         -5.9974300496        0.7514153690       -1.2502408102
 C         -5.4486680696       -0.4459704408       -0.8218144796
 H         -5.7425878397       -1.3941706010       -1.2419831589
 H         -6.7324513697        0.7535965786       -2.0388153202
 H         -6.0186433994        2.8755225792       -0.9995110115
 H         -4.3509562192        2.8707308202        0.8130044183
 H         -3.3723778493        0.7053693306        1.5800788495
 H         -3.0870455698       -2.7985850712       -1.3046512683
 H         -2.2614378599       -1.5276200824       -3.0837397492
 H         -0.8427852199        0.3528789071       -3.8185521505
 H          0.3619027004        1.7209160080       -2.1663064915
 C          0.3695798507        1.4289387797        0.5648693287
 H         -0.0913407793        1.2094080503        1.5375977089
 C          0.2977785607        2.9234372896        0.3251597178
 C         -0.9907573792        3.6348668198        0.6025946675
 C          0.1898772909        3.8442925803        1.5014776172
 H          0.7086304910        4.7904486003        1.4635709866
 H          0.1699554010        3.3983833609        2.4858460275
 H         -1.2886967792        4.4389256394       -0.0521029830
 H         -1.8099833492        3.0404488701        0.9776170079
 H          0.8953397007        3.2595360790       -0.5111895125
 O          2.5913043305        1.9310539884       -1.3196031718
