  62
        -98.94621181
 C         -1.3857765651       -1.1315329446       -0.1515028369
 C         -2.4924871189       -1.1533786057        0.7343753564
 C         -3.2434776031        0.1017313930        0.8616613826
 C         -2.8296648264        1.1852968021        0.1794606140
 C         -3.5258093021        2.5148669219        0.1852585756
 C         -4.5535038642        2.6086250033       -0.9510066765
 C         -5.4970982710        1.4085443454       -1.0292388850
 H         -6.1981079325        1.5981292204       -1.8450094866
 H         -4.9227525853        0.5195686420       -1.2996075268
 C         -6.2797652526        1.1310865647        0.2618935508
 H         -7.3221050309        0.9321003274        0.0037883760
 H         -6.2684333503        2.0153889625        0.9001492442
 C         -5.7810079852       -0.0756222740        1.0592424903
 H         -5.7043816644       -0.9438902949        0.3997991349
 H         -6.5276680475       -0.3105469614        1.8225921637
 C         -4.4366938157        0.1064657886        1.7753328260
 H         -4.4607028016        1.0181185240        2.3758327089
 H         -4.3018801371       -0.7445412195        2.4493797254
 H         -5.1351800123        3.5224544018       -0.8164293355
 H         -4.0164680855        2.6834766404       -1.8992590962
 H         -4.0173650181        2.6578843516        1.1455052345
 H         -2.7789779751        3.2984062124        0.0506163116
 O         -1.7483998117        1.1766596251       -0.6380313714
 C         -1.0007259390        0.0248507687       -0.8321067334
 O         -0.0486136360        0.1682091494       -1.6211317656
 O         -2.8351843113       -2.1754651383        1.3867846477
 C         -0.5641663923       -2.4034472549       -0.2934319688
 C          0.7611921753       -2.1494480547        0.3785349518
 C          0.8668818878       -2.2988381442        1.7585024244
 C          2.0375275120       -1.9727655259        2.4178896281
 C          3.1220677448       -1.4725565102        1.7175595383
 C          3.0202337629       -1.3090193340        0.3427925817
 C          1.8562025877       -1.6676067910       -0.3225373506
 H          1.7915975282       -1.5264359684       -1.3894106780
 N          4.1053546387       -0.7571113503       -0.3740368801
 S          4.5208902197        0.8170328234        0.0230967067
 O          5.4276820181        1.2487606882       -1.0164712143
 O          5.0431659138        0.8320925423        1.3666803945
 C          3.0099051458        1.7615995402       -0.0513530812
 C          2.6968960818        2.4208628838       -1.2222423141
 C          1.5105949994        3.1306661851       -1.2959169394
 C          0.6564582445        3.1588812621       -0.2058808829
 C          0.9787952005        2.4820875882        0.9593268425
 C          2.1675011029        1.7759119393        1.0418855779
 H          2.4521163816        1.2426933200        1.9345867224
 H          0.3039134419        2.4939489279        1.8012567001
 H         -0.2717832222        3.7044863164       -0.2687311951
 H          1.2494557279        3.6493498111       -2.2043258206
 H          3.3894947862        2.3739333144       -2.0474886017
 H          3.9738535002       -0.8112350156       -1.3750626174
 H          4.0326685863       -1.1833065655        2.2167094688
 H          2.1060973626       -2.1008250252        3.4877022369
 H          0.0105548338       -2.6596288321        2.3109471467
 H         -1.1031967417       -3.1660673639        0.2839366868
 C         -0.4500946082       -2.8683502863       -1.7294285115
 C          0.0460700727       -4.2543968273       -2.0106038287
 C         -1.3951280869       -3.9134797070       -2.2384866235
 H         -1.7525310585       -3.8335049336       -3.2542598734
 H         -2.1281760119       -4.3048080526       -1.5483618718
 H          0.6799214524       -4.4125356434       -2.8697560637
 H          0.2923964049       -4.8757503042       -1.1628705790
 H         -0.1711277491       -2.0808042347       -2.4183801973
