  62
        -98.94043891
 C          2.0399423425        0.4639893736        0.0612914350
 C          2.6875830125       -0.7071858854        0.5323433098
 C          4.0407332735       -0.9587795195        0.0228772004
 C          4.5746381859       -0.1012014132       -0.8656266631
 C          5.9603096444       -0.2041342912       -1.4324965123
 C          6.9699030459        0.5755164569       -0.5784864710
 C          6.8776310445        0.2727988135        0.9170691802
 H          7.6552049823        0.8556212870        1.4155734685
 H          5.9165958309        0.6296785673        1.2943493461
 C          7.0418121135       -1.2107434324        1.2757369137
 H          7.5058398676       -1.7438536051        0.4451356305
 H          7.7170081979       -1.2919409798        2.1302320348
 C          5.7419264884       -1.9163399338        1.6668611324
 H          5.2264237148       -1.3351295267        2.4356533425
 H          5.9992486490       -2.8837866225        2.1063798642
 C          4.7561088375       -2.1824287225        0.5220784937
 H          5.2714870973       -2.6886232965       -0.2969151979
 H          3.9773177695       -2.8502624150        0.9020836611
 H          7.9750694306        0.3458633151       -0.9367006941
 H          6.7934110928        1.6438643114       -0.7230414851
 H          6.2472732691       -1.2525609723       -1.4869933642
 H          5.9514119163        0.2134652281       -2.4407196596
 O          3.9171198315        0.9943486475       -1.3170026277
 C          2.6380074127        1.3123605616       -0.8717732181
 O          2.1775314820        2.3490141315       -1.3815034526
 H         -1.3047201489       -0.9836069655        1.3382819923
 C         -1.3428708703       -0.7583281676        0.2810635909
 C         -0.3980015729        0.0952421066       -0.2687985884
 C         -0.4506328894        0.3588948013       -1.6340898801
 C         -1.4252966283       -0.2230771105       -2.4241651035
 C         -2.3663738832       -1.0749177218       -1.8718244378
 C         -2.3223508351       -1.3437337883       -0.5108808457
 N         -3.2989501576       -2.1881110816        0.0572413125
 S         -4.8838354034       -1.6537942150       -0.0861301012
 O         -5.6264400938       -2.3685723877        0.9264262110
 O         -5.3227803703       -1.8310296008       -1.4462078343
 C         -4.7823907696        0.0813953568        0.3112740870
 C         -4.7524184651        0.4478613457        1.6424117253
 C         -4.5693923703        1.7823031411        1.9664499537
 C         -4.4053283110        2.7206780582        0.9587349847
 C         -4.4392905045        2.3367006512       -0.3725454716
 C         -4.6293191256        1.0045491448       -0.7035458146
 H         -4.6650356763        0.6674226418       -1.7262479604
 H         -4.3112151184        3.0690993686       -1.1531644883
 H         -4.2462328210        3.7564132790        1.2124558048
 H         -4.5453660572        2.0853186181        3.0009693206
 H         -4.8844031716       -0.3121789736        2.3960566855
 H         -3.1052398253       -2.4296840414        1.0190198754
 H         -3.1376747213       -1.5304450490       -2.4717835643
 H         -1.4531884710       -0.0111190700       -3.4823574257
 H          0.2780207236        1.0288013015       -2.0650669440
 C          0.6492322649        0.7299719432        0.6092933396
 H          0.6294910185        0.2017598397        1.5757962043
 C          0.3717656965        2.2008628374        0.8902196335
 C         -0.6647641552        3.0036214048        0.1678862418
 C         -0.8964359782        2.5940850188        1.5890043822
 H         -0.8501980962        3.3447768196        2.3628531885
 H         -1.6240154894        1.8162014799        1.7675359133
 H         -0.4316684137        4.0349149336       -0.0474291434
 H         -1.2458401238        2.5189253264       -0.6005043382
 H          1.2715883656        2.7335874060        1.1792277399
 O          2.1540475485       -1.5026988155        1.3526904821
