  62
        -98.94027533
 C         -2.8144311298       -0.9050500135        0.2216288954
 C         -2.4500568250       -0.1604776054       -0.9267677714
 C         -2.7860786885        1.2712177105       -0.8997803341
 C         -3.4726144552        1.7770122642        0.1418640558
 C         -3.9275540061        3.1980414822        0.3856433249
 C         -3.0561624488        4.3621387956       -0.0928852477
 C         -1.6065476712        4.3490059159        0.3891536525
 H         -1.1219863863        5.2485775755        0.0025421674
 H         -1.5897216950        4.4067526649        1.4803529099
 C         -0.7771456228        3.1342858299       -0.0317511606
 H         -1.0669663351        2.2636476507        0.5629722563
 H          0.2731716101        3.3345226979        0.2046147412
 C         -0.8533227718        2.7629848913       -1.5145328112
 H         -0.0494945755        2.0447188875       -1.7013020124
 H         -0.6538792504        3.6476920028       -2.1219756457
 C         -2.1806206898        2.1200094733       -1.9764655227
 H         -2.8919619794        2.8686627834       -2.3191598064
 H         -1.9606646850        1.4565225014       -2.8169114052
 H         -3.0726886742        4.4287986371       -1.1769816199
 H         -3.5228379821        5.2734009915        0.2906258229
 H         -4.9174223844        3.3035145746       -0.0708598215
 H         -4.0665951153        3.2759092986        1.4675112993
 O         -3.9161618288        0.9902451647        1.1637589696
 C         -3.5419060792       -0.3419973779        1.2660201162
 O         -3.9102604142       -0.9011320511        2.3193714312
 O         -1.8513171910       -0.6582125312       -1.9142344169
 C         -2.2957888828       -2.3223609840        0.3826326472
 C         -0.7912588352       -2.2986728189        0.2310517467
 C         -0.0769276032       -3.2489170692       -0.4859926698
 C          1.2939934726       -3.1272092255       -0.6397704869
 C          1.9807081935       -2.0595576892       -0.0915947899
 C          1.2777629305       -1.1104143813        0.6385503568
 C         -0.0888283136       -1.2497254688        0.8119406214
 H         -0.6292399232       -0.5021810357        1.3821552244
 N          1.9604348221       -0.0064814840        1.1891219618
 S          2.7669986426        0.9889748764        0.0939284592
 O          2.7812494058        2.2984887231        0.7096522868
 O          2.1981815913        0.9027026372       -1.2294986574
 C          4.4198341929        0.3277251380        0.0928748190
 C          5.1216531298        0.3293937519        1.2824493600
 C          6.4056330581       -0.1911012395        1.3025376111
 C          6.9630435310       -0.7005455670        0.1390079014
 C          6.2466357462       -0.6919432461       -1.0480299870
 C          4.9612875434       -0.1730123439       -1.0745707679
 H          4.3637964911       -0.1486924992       -1.9721305605
 H          6.6819216574       -1.0874533946       -1.9516331905
 H          7.9621852576       -1.1063084570        0.1572148563
 H          6.9661561188       -0.1991055369        2.2233930734
 H          4.6518927952        0.7389816567        2.1610810117
 H          1.3714438063        0.5623608270        1.7814318928
 H          3.0439393449       -1.9479185132       -0.2296070954
 H          1.8335040105       -3.8692407691       -1.2083225022
 H         -0.5967031525       -4.0760213518       -0.9412924315
 H         -2.5422978245       -2.6280826380        1.4102173171
 C         -2.9823331013       -3.2622330820       -0.5857893853
 C         -3.1828909707       -4.7037807248       -0.2286806467
 C         -4.3523611947       -3.7674065899       -0.2503398729
 H         -5.0763988047       -3.8604177164       -1.0457110084
 H         -4.7773874491       -3.4523411272        0.6917519164
 H         -3.1079557648       -5.4437921373       -1.0111296006
 H         -2.8203903802       -5.0367615500        0.7320953060
 H         -2.7791861180       -3.0100347259       -1.6202442705
