  62
        -98.93874523
 C         -2.5473538663       -0.1309728759        0.5001886195
 C         -2.4303638523        0.6105675394       -0.6974198038
 C         -2.0855253070        2.0370092143       -0.5602948693
 C         -1.8578509960        2.5459657179        0.6645685210
 C         -1.4796896043        3.9417794442        1.1151353230
 C         -1.0707176881        5.0043037614        0.0994147203
 C          0.2820667576        4.7595339382       -0.5697133868
 H          0.4120843376        5.5043668457       -1.3582459981
 H          1.0672224787        4.9189929001        0.1737207202
 C          0.4949625268        3.3682982195       -1.1623560362
 H          0.4621303325        2.6123622413       -0.3741817492
 H          1.5054013366        3.3395386312       -1.5804360347
 C         -0.4728726762        2.9743597230       -2.2757141117
 H         -0.1324021290        2.0175657256       -2.6815515112
 H         -0.4336515391        3.7151767470       -3.0775657043
 C         -1.9379298434        2.7969654479       -1.8475615676
 H         -2.4516736999        3.7535448168       -1.7912543863
 H         -2.4399670268        2.1968802184       -2.6125141368
 H         -1.8518390455        5.1316733074       -0.6442559691
 H         -0.9990610233        5.9475968666        0.6479542600
 H         -2.3408445637        4.3132311520        1.6818932342
 H         -0.6691775710        3.8074281583        1.8392902241
 O         -1.9937171159        1.7902256592        1.7958056374
 C         -2.3114385778        0.4463641006        1.7445257625
 O         -2.3607503455       -0.1159418315        2.8600742719
 O         -2.6053432741        0.1076179599       -1.8386993996
 C         -2.7866497441       -1.6282797654        0.4406732531
 C         -1.6572152631       -2.2762026496       -0.3275489100
 C         -1.8331863883       -3.3320919967       -1.2116818336
 C         -0.7467366980       -3.8638271485       -1.8865257644
 C          0.5252760300       -3.3541941963       -1.7048248047
 C          0.7112772545       -2.2946947664       -0.8214902314
 C         -0.3724763982       -1.7877779682       -0.1268459822
 H         -0.2163407034       -0.9809810270        0.5741315845
 N          1.9774465289       -1.7075414015       -0.6630191106
 S          2.3263252784       -0.7412911375        0.6692236090
 O          2.1485729779       -1.4911233089        1.8950463660
 O          1.6047524718        0.5011820467        0.5632196262
 C          4.0606675227       -0.4517546991        0.3766035021
 C          5.0040741593       -1.2177805334        1.0344650550
 C          6.3474303970       -0.9978031526        0.7723627512
 C          6.7220159898       -0.0228194965       -0.1398030995
 C          5.7636066733        0.7396924403       -0.7911522158
 C          4.4192001336        0.5252602640       -0.5327801877
 H          3.6375862515        1.0970444362       -1.0058976652
 H          6.0582272237        1.4993317978       -1.4970543081
 H          7.7677603335        0.1463816103       -0.3422025339
 H          7.0946951150       -1.5860411349        1.2800358587
 H          4.6653640566       -1.9573939879        1.7420729162
 H          2.7438215114       -2.3207536606       -0.9019354603
 H          1.3657249385       -3.7594085591       -2.2467951070
 H         -0.8955337332       -4.6849582543       -2.5713133134
 H         -2.8194436753       -3.7343086769       -1.3766994508
 H         -2.7404869415       -1.9857331025        1.4810724150
 C         -4.1559817299       -1.9396843291       -0.1259829746
 C         -4.9013812217       -3.1601078754        0.3216123332
 C         -5.3535739244       -1.8017829544        0.7636216733
 H         -6.2626197977       -1.3963247936        0.3458109921
 H         -5.1756009396       -1.5095856393        1.7887646783
 H         -5.5057920035       -3.6887708949       -0.3999736580
 H         -4.4265002447       -3.7963101034        1.0534191810
 H         -4.2579343522       -1.6230455045       -1.1573546018
