  62
        -98.94118565
 C         -2.3582252595       -1.1093958584       -0.4050262543
 C         -3.6872245242       -1.0772437399        0.0850115247
 C         -4.5359268380        0.0085704954       -0.4211891190
 C         -4.0181660417        0.8963848499       -1.2897894878
 C         -4.7516507653        2.0851593664       -1.8385594644
 C         -4.5377011542        3.3251282151       -0.9592086078
 C         -4.7742116726        3.0751948340        0.5303433883
 H         -4.0112725278        2.3865329855        0.9015840908
 H         -4.6243071773        4.0258130289        1.0469245376
 C         -6.1658645145        2.5225519579        0.8688899580
 H         -6.5572590269        3.0657253942        1.7315888485
 H         -6.8477188664        2.7013933726        0.0367860938
 C         -6.1870244874        1.0364875517        1.2311285628
 H         -5.4368988861        0.8368664664        2.0006190965
 H         -7.1654504236        0.8050002834        1.6603278634
 C         -5.9558949123        0.0633276828        0.0682468854
 H         -6.6368279792        0.3012654887       -0.7513068518
 H         -6.1876708538       -0.9435645961        0.4274736300
 H         -3.5083628376        3.6681916876       -1.0882132215
 H         -5.2055677308        4.1149594404       -1.3078827229
 H         -4.3710872072        2.2916688445       -2.8402353921
 H         -5.8126512563        1.8520465992       -1.9038518867
 O         -2.7380862910        0.8352574674       -1.7364984782
 C         -1.8724735774       -0.1591184352       -1.3031866726
 O         -0.7297082711       -0.0877699216       -1.7948671091
 O         -4.1418377909       -1.9189367493        0.9051296294
 C         -1.4289431425       -2.1994816135        0.1030215400
 C         -0.3405084619       -1.5454337190        0.9171970899
 C         -0.6583232358       -1.0391472144        2.1751792160
 C          0.2893792005       -0.3729210808        2.9277800701
 C          1.5739446589       -0.1941481733        2.4430692131
 C          1.8983876804       -0.6884297516        1.1876825233
 C          0.9458594017       -1.3668101671        0.4361857105
 H          1.2070750162       -1.7322603853       -0.5442203795
 N          3.2045842737       -0.5280908438        0.6837331282
 S          3.9314489066        0.9865746704        0.8620493772
 O          4.3945528839        1.1116196030        2.2221013765
 O          3.0470857008        2.0337130588        0.4000938651
 C          5.3257049683        0.8100522368       -0.2330643604
 C          5.2067139066        1.2206308348       -1.5472319641
 C          6.2843451572        1.0503049971       -2.4022297706
 C          7.4539722603        0.4720915426       -1.9319435243
 C          7.5577413672        0.0648187363       -0.6102096391
 C          6.4847538940        0.2334517918        0.2503584592
 H          6.5208841274       -0.0592835363        1.2865384899
 H          8.4695048821       -0.3822516051       -0.2484434391
 H          8.2902878509        0.3407768623       -2.6002688991
 H          6.2066661704        1.3681126455       -3.4295998396
 H          4.2806095395        1.6712753613       -1.8682144881
 H          3.2617817319       -0.8223591415       -0.2825726342
 H          2.3190345036        0.3362554511        3.0134227513
 H          0.0284194627        0.0162027659        3.9008010929
 H         -1.6657240821       -1.1649075021        2.5482096812
 H         -2.0414400050       -2.8109665864        0.7797328619
 C         -0.9234325660       -3.0756206498       -1.0229006899
 C         -0.3147139300       -4.4075354898       -0.7039860306
 C         -1.6622149022       -4.3358743993       -1.3552580545
 H         -1.7507335394       -4.6212482844       -2.3927891839
 H         -2.5322714865       -4.5750823634       -0.7617193186
 H          0.5231712025       -4.7472322827       -1.2933562798
 H         -0.2679238792       -4.6954744774        0.3352640504
 H         -0.5125080527       -2.5110013680       -1.8514177240
