  62
        -98.94429486
 C         -1.3788862958       -1.5866392728       -0.6163843823
 C         -2.6042319962       -1.5604270424        0.0978887812
 C         -3.5853298930       -0.5555771551       -0.3211165661
 C         -3.2976719354        0.2653616314       -1.3470636303
 C         -4.1938216015        1.3395160192       -1.9010046539
 C         -4.1097026165        2.6667842149       -1.1349100962
 C         -4.7810491501        2.6655685757        0.2391523025
 H         -4.8465041898        3.7058997090        0.5640076065
 H         -5.7999058247        2.2878693579        0.1449657658
 C         -4.0283746495        1.8626980724        1.3096914451
 H         -3.9734445624        2.4476308849        2.2309659272
 H         -2.9988717801        1.6939897558        0.9821051788
 C         -4.6687111534        0.5198808040        1.6638072157
 H         -4.0306705177        0.0214502020        2.3981867202
 H         -5.6443296954        0.6910172748        2.1245033904
 C         -4.8502765964       -0.4300449324        0.4728185979
 H         -5.0992021661       -1.4211322467        0.8602376584
 H         -5.6662562272       -0.0861805041       -0.1625111790
 H         -3.0568915419        2.9403629100       -1.0247545709
 H         -4.5898522732        3.4313070983       -1.7505129611
 H         -5.2261281939        0.9882699728       -1.9135403850
 H         -3.8717752559        1.5147917990       -2.9298065557
 O         -2.1271898547        0.1924137613       -2.0287942716
 C         -1.1212253628       -0.6959078505       -1.6599049059
 O         -0.0928979090       -0.5895632483       -2.3527908627
 O         -2.8656462172       -2.3526407694        1.0436783108
 C         -0.3425059357       -2.5822282714       -0.1275485898
 C          0.4591896262       -1.9963987666        1.0101623638
 C          0.8331725716       -2.7740009947        2.1003323084
 C          1.5633399067       -2.2211100614        3.1376844713
 C          1.9228795845       -0.8859415682        3.1147736300
 C          1.5366932506       -0.0933084043        2.0378468750
 C          0.8240483254       -0.6583380780        0.9904341946
 H          0.5209414761       -0.0354892360        0.1654902515
 N          1.8316684037        1.2720822723        2.0243083514
 S          1.8783814388        2.2227289779        0.6558329008
 O          2.3688346467        3.4931429693        1.1485603852
 O          0.5893884268        2.2508489615        0.0124238800
 C          3.1307769290        1.4933353701       -0.3827904004
 C          4.4436952686        1.6727931137        0.0139273539
 C          5.4598483517        1.1186331673       -0.7449211262
 C          5.1483921884        0.3976565626       -1.8886081262
 C          3.8285455885        0.2310347885       -2.2741769019
 C          2.8032409265        0.7785627601       -1.5157510230
 H          1.7705521607        0.6433442509       -1.7989369756
 H          3.5783360226       -0.3261509309       -3.1626111503
 H          5.9374892664       -0.0343351382       -2.4836046442
 H          6.4873151675        1.2507647447       -0.4465508350
 H          4.6425584020        2.2590567919        0.8962587288
 H          2.4409486980        1.6027828177        2.7558620681
 H          2.4785127796       -0.4510379072        3.9311087157
 H          1.8490592406       -2.8343072029        3.9786906275
 H          0.5286193013       -3.8092151827        2.1435136841
 H         -0.9265114726       -3.4202723122        0.2871316277
 C          0.5374586749       -3.1425169322       -1.2352804495
 C          1.9708577152       -2.7529531573       -1.4147423733
 C          1.6275431815       -4.1247434422       -0.9224147070
 H          1.7677292452       -4.9632483332       -1.5875022853
 H          1.8230457771       -4.3449465689        0.1154009312
 H          2.3331925179       -2.6350231327       -2.4236972053
 H          2.3953528085       -2.0471290038       -0.7172226589
 H         -0.0281771301       -3.3190374744       -2.1443051806
