  62
        -98.92989177
 C          2.2722869502        0.5520887895        0.8514398692
 C          3.4291049902        1.0055429092        0.1729882589
 C          4.6145309501        0.1245768191        0.2319325988
 C          4.5402183100       -1.0538969608        0.8756106890
 C          5.5805020299       -2.1269316209        1.1227255990
 C          6.8987713897       -2.1305809313        0.3530283888
 C          6.7666872194       -2.4283281515       -1.1402279812
 H          7.7482329093       -2.3010566718       -1.6019361514
 H          6.4753591092       -3.4748128015       -1.2606715109
 C          5.7482557094       -1.5775511815       -1.8949333711
 H          4.7471961894       -1.7688827313       -1.5025891709
 H          5.7511723091       -1.9013007517       -2.9393387410
 C          6.0107078296       -0.0731984716       -1.8741752615
 H          5.3106547895        0.3927194584       -2.5727048014
 H          7.0226343895        0.1283935682       -2.2307985717
 C          5.8264811400        0.6124144687       -0.5095367416
 H          6.7170265501        0.5142988487        0.1063743283
 H          5.6660179901        1.6795960587       -0.6883822417
 H          7.5129195597       -2.9207560413        0.7935086388
 H          7.4289694099       -1.1960600813        0.5106612485
 H          5.0674596297       -3.0802097109        0.9599797093
 H          5.8050915901       -2.0789145407        2.1941062190
 O          3.3934572501       -1.4578428905        1.5007661094
 C          2.2525055502       -0.6788100203        1.5089701394
 O          1.2962888802       -1.1823771201        2.1350891297
 O          3.4992995302        2.0927949391       -0.4533564714
 C          0.9788087304        1.3461485398        0.9179961793
 C          0.0880157101        1.0506730397       -0.2619493504
 C          0.5801861898        1.0642964993       -1.5632670405
 C         -0.2577067704        0.7948199492       -2.6296795203
 C         -1.5954499004        0.5104090195       -2.4211356800
 C         -2.1004966102        0.5042105298       -1.1254866399
 C         -1.2551786899        0.7695328399       -0.0567544701
 H         -1.6514738297        0.7370371902        0.9469420300
 N         -3.4690840802        0.2762298101       -0.9031064696
 S         -3.9876568600       -0.5006691696        0.5016806207
 O         -3.8740442296        0.4156678106        1.6080798805
 O         -3.3220673902       -1.7763970696        0.6448132208
 C         -5.7077542201       -0.7372119894        0.0964658911
 C         -6.5579587999        0.3493248608        0.1831341011
 C         -7.8911449300        0.1853098809       -0.1569156586
 C         -8.3499699003       -1.0552674491       -0.5749650983
 C         -7.4858172605       -2.1368705293       -0.6537362082
 C         -6.1502605904       -1.9791521894       -0.3170778386
 H         -5.4432284305       -2.7923378495       -0.3561504685
 H         -7.8461118707       -3.1007621793       -0.9753028280
 H         -9.3883422104       -1.1805653390       -0.8383590180
 H         -8.5665965999        1.0231714110       -0.0943195286
 H         -6.1584010197        1.2907284908        0.5221471208
 H         -3.9350216404       -0.1034116900       -1.7164300894
 H         -2.2468080206        0.2988067294       -3.2554903198
 H          0.1359874394        0.8039340690       -3.6349649104
 H          1.6212272998        1.2957556591       -1.7282560508
 H          0.4594275105        0.9739342900        1.8167645795
 C          1.2079444407        2.8395701698        1.1169949290
 C          0.9091929006        3.8685270496        0.0728092888
 C          0.0325893108        3.7573079000        1.2814613790
 H          0.0819358111        4.5296639101        2.0341269789
 H         -0.9508481293        3.3290767301        1.1525289093
 H          1.5835078707        4.7072455795       -0.0067119315
 H          0.5173444003        3.5340410695       -0.8745087710
 H          2.0674523008        3.0332619898        1.7507305188
