  62
        -98.94571524
 C          0.9566838884        1.1600009306       -0.2606348127
 C          1.9871072153        1.2104898168        0.7153397194
 C          2.8818451133        0.0494871245        0.7852859155
 C          2.6822815834       -0.9805770205       -0.0564265017
 C          3.5624847070       -2.1926102068       -0.1499987150
 C          4.6825770196       -1.9869067773       -1.1798047610
 C          5.4448352306       -0.6725209304       -1.0126012432
 H          4.7705419199        0.1602691593       -1.2251829748
 H          6.2287963321       -0.6520799985       -1.7728820644
 C          6.0723829606       -0.4742611584        0.3742355143
 H          7.0928258037       -0.1063936110        0.2475525864
 H          6.1360147087       -1.4315289651        0.8927810778
 C          5.3415549492        0.5353058276        1.2612821837
 H          5.1955391323        1.4680632068        0.7106969831
 H          5.9808115666        0.7595114546        2.1194091242
 C          3.9824288761        0.0807693898        1.8082434284
 H          3.6695235199        0.8076593368        2.5632089500
 H          4.0878640308       -0.8928343240        2.2904897233
 H          4.2410270490       -2.0002980269       -2.1789752835
 H          5.3787877980       -2.8243226267       -1.1049776119
 H          2.9518294482       -3.0405106714       -0.4616860209
 H          3.9905245328       -2.4007640959        0.8285561424
 O          1.6764690641       -1.0046296455       -0.9640228876
 C          0.7831774585        0.0505507046       -1.0885517210
 O         -0.0838590817       -0.1395659208       -1.9635248288
 O          2.1543838658        2.1914666892        1.4882747216
 C          0.0403245311        2.3706249031       -0.3365723795
 C         -1.2080241062        2.1333359624        0.4784550360
 C         -1.4311340705        2.8551876998        1.6457257335
 C         -2.5615850086        2.6278964895        2.4097060946
 C         -3.4817554169        1.6683225612        2.0304562275
 C         -3.2644931136        0.9364102015        0.8668328280
 C         -2.1379042315        1.1767392575        0.0931159961
 H         -1.9822409341        0.6040294936       -0.8076642002
 N         -4.1799515347       -0.0473508952        0.4758810594
 S         -3.7607073812       -1.3297960993       -0.4985870408
 O         -3.6661360252       -0.9052037873       -1.8717697285
 O         -4.7909189355       -2.3143543684       -0.2280194879
 C         -2.2025368399       -1.9788842696        0.0822036290
 C         -1.4188170124       -2.6614298007       -0.8249085695
 C         -0.2477226486       -3.2585189913       -0.3878149625
 C          0.1245564854       -3.1543837657        0.9427402247
 C         -0.6692738220       -2.4593087739        1.8406674705
 C         -1.8500581175       -1.8739193957        1.4126414630
 H         -2.4808151623       -1.3358791480        2.1013962650
 H         -0.3726985941       -2.3710121057        2.8736407480
 H          1.0399838010       -3.6128296521        1.2827758219
 H          0.3714694277       -3.7915019568       -1.0916785949
 H         -1.7295685551       -2.6970750994       -1.8565810657
 H         -4.8872960248       -0.2889539220        1.1532709237
 H         -4.3619073740        1.4817178270        2.6264468113
 H         -2.7243039045        3.1967024472        3.3123439916
 H         -0.7013602081        3.5871351888        1.9586012151
 H          0.6012121680        3.1826385346        0.1466927531
 C         -0.2979189787        2.8026381271       -1.7486623407
 C         -0.7131294586        4.2221138222       -1.9897102283
 C          0.6230141383        3.7400386289       -2.4678953899
 H          0.7754291594        3.5994593068       -3.5274862252
 H          1.5042591279        4.0773754297       -1.9415559128
 H         -1.4831386855        4.4149052077       -2.7209084105
 H         -0.7359422989        4.8883811415       -1.1405415350
 H         -0.7787654935        2.0318135236       -2.3368023341
