  62
        -98.94493465
 C         -2.1824746040        0.9630524242       -0.5341515630
 C         -2.3255628004        0.1918137612        0.6450805608
 C         -3.0943615663       -1.0514709511        0.5015708888
 C         -3.5588916234       -1.4174607514       -0.7066327998
 C         -4.3374826704       -2.6673586941       -1.0161692876
 C         -5.8430628189       -2.5493249247       -0.7414152624
 C         -6.2359255184       -2.5366979719        0.7364042523
 H         -7.3182632516       -2.6725258894        0.7808493725
 H         -5.7797809711       -3.3900151295        1.2392495951
 C         -5.8702246553       -1.2435953567        1.4784155424
 H         -6.7212057867       -0.9156714367        2.0794318641
 H         -5.6661511064       -0.4525408808        0.7532515559
 C         -4.6728988866       -1.3706846071        2.4204698522
 H         -4.4790386895       -0.3906760525        2.8635428593
 H         -4.9139459611       -2.0642756223        3.2289810522
 C         -3.3821230461       -1.8452374569        1.7398604082
 H         -2.5494367946       -1.6922292249        2.4312349674
 H         -3.4480838108       -2.9076098722        1.5050104138
 H         -6.2159773350       -1.6440403886       -1.2258797750
 H         -6.3279854985       -3.4049107022       -1.2170472532
 H         -3.9264330789       -3.5039423404       -0.4500930175
 H         -4.1959416473       -2.8659493306       -2.0808694990
 O         -3.3451007616       -0.6775350250       -1.8280653490
 C         -2.6674188315        0.5301843026       -1.7674142276
 O         -2.5520641512        1.1093805406       -2.8678145848
 O         -1.8402989856        0.5198251862        1.7581926418
 C         -1.4259864682        2.2799777789       -0.4944100028
 C          0.0058998895        2.0186697170       -0.0927203375
 C          0.6479505453        2.6668147450        0.9530538198
 C          1.9554362365        2.3457202553        1.2769291644
 C          2.6506236654        1.3860884881        0.5647629690
 C          2.0200348523        0.7376171715       -0.4895582099
 C          0.7115568453        1.0600368169       -0.8105020791
 H          0.2176689719        0.5498587210       -1.6296391591
 N          2.7234995429       -0.2310698208       -1.2318570554
 S          3.3926432508       -1.5149782152       -0.3764845806
 O          3.5015285090       -2.5920961925       -1.3371205884
 O          2.6452479607       -1.8003509229        0.8266454794
 C          5.0267201690       -0.9404095171        0.0353044766
 C          5.4378488007       -0.9193453867        1.3535667608
 C          6.7177113028       -0.4754830894        1.6486678608
 C          7.5583786516       -0.0636166082        0.6259392846
 C          7.1304659579       -0.0928427117       -0.6932214453
 C          5.8530623900       -0.5367618496       -0.9953204650
 H          5.4821135905       -0.5790423468       -2.0057322247
 H          7.7869699027        0.2283739089       -1.4856988848
 H          8.5531111790        0.2823738976        0.8584023756
 H          7.0518808364       -0.4519190098        2.6734632790
 H          4.7459777766       -1.2423918737        2.1151149998
 H          2.2007769629       -0.5813546742       -2.0224013745
 H          3.6668050308        1.1313860814        0.8179191868
 H          2.4397928698        2.8507276903        2.0986257631
 H          0.1216575545        3.4136207527        1.5239851171
 H         -1.4242053643        2.6597500677       -1.5265876329
 C         -2.1406145834        3.2769847498        0.3923247352
 C         -1.9763198948        4.7469111639        0.1532986447
 C         -3.2723174726        4.0733891673       -0.1816160155
 H         -4.1332134379        4.2681113806        0.4401681754
 H         -3.5141336730        3.9129528795       -1.2225422253
 H         -1.9499519249        5.4085137751        1.0057750760
 H         -1.3391079454        5.0519661756       -0.6628181051
 H         -2.2419179246        2.9296276453        1.4137770573
