  62
        -98.94263662
 C         -1.7071494417       -1.2861010970       -0.2364193117
 C         -0.6901217440       -1.7835105922       -1.0796817619
 C          0.3549357631       -2.6018866379       -0.4415347333
 C          0.3049434709       -2.7952932472        0.8883054003
 C          1.3109962277       -3.5037261004        1.7535863454
 C          2.3596971428       -2.5068866097        2.2793421956
 C          3.5881963875       -2.3440332324        1.3867775111
 H          4.2054166093       -1.5584826958        1.8296125799
 H          4.1700572117       -3.2685545772        1.3980327208
 C          3.2772715060       -1.9663344378       -0.0630495464
 H          2.4926257637       -1.2060916110       -0.0727232347
 H          4.1726647427       -1.5144419767       -0.4932244221
 C          2.8613290829       -3.1648104642       -0.9276738330
 H          3.0805835133       -4.0879976892       -0.3918728695
 H          3.4659592325       -3.1817485621       -1.8367203566
 C          1.3951669919       -3.1600874978       -1.3757651829
 H          1.2975393424       -2.5589915763       -2.2854854723
 H          1.1018461528       -4.1811732770       -1.6436596041
 H          1.8724539797       -1.5349031105        2.4031539780
 H          2.6947899469       -2.8347227939        3.2659701744
 H          0.7578849924       -3.9102476351        2.6028587843
 H          1.7799470741       -4.3233107791        1.2168087927
 O         -0.6936454000       -2.2948210679        1.6668359363
 C         -1.7044047163       -1.5149037674        1.1394182523
 O         -2.5344776559       -1.1069183653        1.9756132601
 O         -0.6476352566       -1.5402716106       -2.3179537857
 C         -2.7729456664       -0.3768622748       -0.8213526411
 C         -2.6664163987        0.9801780750       -0.1696589560
 C         -3.7588389145        1.7171202106        0.2667035959
 C         -3.5702782172        2.9306687148        0.9067951518
 C         -2.2994348119        3.4230907268        1.1376149782
 C         -1.1994249225        2.7003646320        0.6868445466
 C         -1.3936659898        1.5082606733        0.0110895887
 H         -0.5376560910        0.9451668199       -0.3314627021
 N          0.1058717205        3.1753193070        0.8824411584
 S          1.4119811102        2.1487736776        1.0701050738
 O          1.0281916031        0.8436391783        1.5562382830
 O          2.3390271385        2.8819947525        1.9081994070
 C          2.1313206668        2.0053157594       -0.5553201497
 C          1.4632229900        2.4223321084       -1.6880634972
 C          2.0798618170        2.2707631408       -2.9212643386
 C          3.3456570359        1.7133446724       -3.0024535377
 C          4.0085409502        1.3086932998       -1.8541850428
 C          3.3972171352        1.4553492027       -0.6199705029
 H          3.8765377603        1.1584583304        0.2992336029
 H          4.9960196509        0.8802896754       -1.9161086519
 H          3.8183589690        1.5954011280       -3.9646715539
 H          1.5649772052        2.5872867893       -3.8141595551
 H          0.4791902500        2.8535145763       -1.6050375122
 H          0.1866498857        3.9891837859        1.4729196103
 H         -2.1541690528        4.3535603565        1.6648862767
 H         -4.4264315859        3.4918261252        1.2494466372
 H         -4.7561905374        1.3355062940        0.1219480518
 H         -2.5196317330       -0.2741960999       -1.8872598319
 C         -4.1467542881       -1.0008319857       -0.7020708468
 C         -5.2107327287       -0.6867610293       -1.7101785364
 C         -4.5602168836       -2.0363788896       -1.7031535746
 H         -5.1313153699       -2.8857564437       -1.3596775776
 H         -3.8578821356       -2.2720215458       -2.4893018094
 H         -6.2336611415       -0.6114356726       -1.3733820418
 H         -4.9569077028       -0.0077962844       -2.5099780770
 H         -4.4434736246       -1.1545127329        0.3294811515
