  62
        -98.93850352
 C         -1.6470370410       -1.2515365691        0.4822392706
 C         -1.3248996502       -0.2661244797       -0.4797943498
 C         -1.8491249597        1.0807858807       -0.2191510906
 C         -2.5337783200        1.3133991215        0.9147050491
 C         -3.1467016195        2.6303892020        1.2920318983
 C         -4.5944707593        2.7381255524        0.7926306478
 C         -4.7684981490        2.3659000318       -0.6797360421
 H         -4.5469283594        1.3037134816       -0.8055132116
 H         -5.8225794288        2.5072123721       -0.9279246425
 C         -3.9002755383        3.1825426709       -1.6468344222
 H         -4.5157188579        3.4903598408       -2.4947259726
 H         -3.5504948581        4.0899088710       -1.1533194726
 C         -2.7018540885        2.4226488401       -2.2177955215
 H         -2.2897354879        3.0097627195       -3.0424933916
 H         -3.0374617587        1.4676421901       -2.6292418311
 C         -1.5548590789        2.1469436301       -1.2367652010
 H         -1.2550190886        3.0740119302       -0.7431074113
 H         -0.7028285989        1.7805531494       -1.8162231305
 H         -4.9397748789        3.7606700126        0.9558107472
 H         -5.2168311998        2.0695152630        1.3920295379
 H         -3.1369938998        2.7121951725        2.3805036482
 H         -2.5436159590        3.4351461515        0.8756447481
 O         -2.7893579207        0.3505148921        1.8374239395
 C         -2.3521294412       -0.9485454682        1.6450802802
 O         -2.6500002719       -1.7365360676        2.5685893305
 O         -0.6274705400       -0.4932148105       -1.5023747894
 C         -1.1496813216       -2.6840424194        0.3119299515
 C          0.3259880986       -2.6237297402       -0.0096409181
 C          1.0059457887       -3.2157682610       -1.0660070076
 C          2.3703235288       -3.0284176117       -1.2252818972
 C          3.0903326989       -2.2286817716       -0.3598063374
 C          2.4250246388       -1.6347036708        0.7063628721
 C          1.0745876086       -1.8658980201        0.8905188818
 H          0.5807992386       -1.3974538895        1.7303856714
 N          3.0877478489       -0.7737284006        1.6090454519
 S          2.6124341996        0.8345590696        1.5862063010
 O          3.4487575196        1.4886693797        2.5704841210
 O          1.1897155596        0.9331061603        1.7872496705
 C          3.0661995204        1.4101701186       -0.0413383991
 C          2.2852119506        1.0585974384       -1.1240788092
 C          2.6829276812        1.4619830176       -2.3900103893
 C          3.8446885316        2.2004976970       -2.5521114592
 C          4.6190816814        2.5424613372       -1.4535198092
 C          4.2306615408        2.1403831680       -0.1860205691
 H          4.7978755206        2.3840738482        0.6978547710
 H          5.5221617716        3.1175072768       -1.5802991691
 H          4.1466809320        2.5109785364       -3.5399473293
 H          2.0761079413        1.1894867675       -3.2387616593
 H          1.3831150303        0.4851293289       -0.9766678492
 H          4.0961228289       -0.8163747511        1.5428213623
 H          4.1463776990       -2.0586300621       -0.5057836671
 H          2.8727536289       -3.4984655623       -2.0569678068
 H          0.4908010786       -3.8132442611       -1.7953741075
 H         -1.2325416521       -3.1393110788        1.3138955916
 C         -2.1468468216       -3.4255965093       -0.5661531585
 C         -2.1210975811       -3.4649912201       -2.0615800085
 C         -1.9044856020       -4.7247645498       -1.2743179878
 H         -2.7041398923       -5.4509673094       -1.2612710677
 H         -0.9236321022       -5.1678692502       -1.2316426873
 H         -3.0601684809       -3.3454690299       -2.5827456689
 H         -1.2928853308       -2.9906608207       -2.5618840784
 H         -3.1338279317       -3.3216550587       -0.1182409989
