  62
        -98.94062221
 C          1.3171651835        1.4219755870       -0.2584743498
 C          2.5212494355        1.3935434099        0.4879048099
 C          3.6026190613        0.5238176453       -0.0033939412
 C          3.4015359936       -0.2074515765       -1.1153036743
 C          4.3139182636       -1.1534412869       -1.8683373491
 C          5.6126127684       -1.6506090864       -1.2393528761
 C          5.4257152408       -2.5881576486       -0.0467578856
 H          5.0174351000       -3.5346128434       -0.4105854992
 H          6.4078194023       -2.7930721971        0.3850347214
 C          4.4956536990       -2.0812146167        1.0529226070
 H          3.4847847821       -1.9636297804        0.6550264188
 H          4.4441229441       -2.8510830268        1.8279860775
 C          4.9244225374       -0.7766292403        1.7219394083
 H          4.2651111414       -0.6155889613        2.5792589362
 H          5.9447203043       -0.8754176382        2.0977714732
 C          4.8465353525        0.4786367399        0.8365388913
 H          4.8027319832        1.3521208284        1.4937399644
 H          5.7335694856        0.5803781359        0.2158390043
 H          6.2455256216       -0.8103856868       -0.9694197045
 H          6.1412497534       -2.2087932970       -2.0169056704
 H          3.6917358547       -2.0143063786       -2.1349490482
 H          4.5561458402       -0.6460703036       -2.8088929285
 O          2.2298412351       -0.1427851025       -1.8090344622
 C          1.1604853671        0.6418681448       -1.4035945841
 O          0.1699031670        0.5495047731       -2.1539158801
 H         -0.5115463744       -0.3324660051        0.2503743530
 C         -0.9885448903        0.2186475499        1.0449230195
 C         -0.7161146706        1.5661943235        1.2186864144
 C         -1.3303165338        2.2393516630        2.2701233503
 C         -2.1933349262        1.5765626836        3.1226090024
 C         -2.4692233743        0.2331845492        2.9397797478
 C         -1.8581963883       -0.4508238771        1.8955691354
 N         -2.0988282922       -1.8186039222        1.6984527821
 S         -2.2592722767       -2.4298015504        0.1473903648
 O         -2.9203225525       -3.7037783038        0.3434378718
 O         -0.9761469089       -2.4840899318       -0.5048807166
 C         -3.3785340072       -1.2974393733       -0.6549025904
 C         -4.7099350549       -1.3754794373       -0.2899508167
 C         -5.6110918812       -0.4757783097       -0.8327301565
 C         -5.1663244542        0.4888301406       -1.7248248254
 C         -3.8295057492        0.5497591454       -2.0832990559
 C         -2.9198532947       -0.3495886411       -1.5455297868
 H         -1.8739103905       -0.3153193925       -1.8094875781
 H         -3.4787750172        1.2951849958       -2.7796537765
 H         -5.8648023052        1.1950697582       -2.1452851605
 H         -6.6525211499       -0.5262010024       -0.5587481144
 H         -5.0150093454       -2.1488660052        0.3963082940
 H         -2.7868232736       -2.2178411337        2.3203203885
 H         -3.1402098114       -0.2877665115        3.6052492759
 H         -2.6580740994        2.1094944642        3.9377662170
 H         -1.1150797417        3.2852216984        2.4258782911
 C          0.2107624694        2.3072857903        0.2801415241
 H          0.7218480584        3.0821791915        0.8694888848
 C         -0.6090593555        2.9884640219       -0.7997850478
 C         -1.1924335822        4.3461692952       -0.5543573257
 C         -0.0483889957        4.1834139371       -1.5086621163
 H         -0.2304126243        4.2839345790       -2.5678384793
 H          0.9268005306        4.5322663467       -1.2007700195
 H         -2.1700887185        4.5637659048       -0.9553335491
 H         -0.9891493707        4.8218027108        0.3926188895
 H         -1.1886995903        2.2920189694       -1.3911479918
 O          2.6924875711        2.0868605607        1.5277273638
