  62
        -98.93966477
 C         -1.5169830685       -1.5767800350        0.2475385397
 C         -1.6800023378       -0.4551277474        1.0985482148
 C         -2.8804238719        0.3771535851        0.9002054250
 C         -3.7537604799        0.0264506114       -0.0619340451
 C         -5.0173455582        0.7424514145       -0.4532384352
 C         -4.7491447711        1.9864709193       -1.3236479400
 C         -3.4875415782        2.7701718292       -0.9646454538
 H         -2.6386504739        2.0836903062       -0.9537319239
 H         -3.3062316120        3.4939296689       -1.7634420704
 C         -3.5498107975        3.5405139907        0.3533014311
 H         -2.5767285753        4.0123521927        0.5132299717
 H         -4.2912203744        4.3378270318        0.2595538655
 C         -3.9021209692        2.7208412762        1.5938298669
 H         -4.9425700899        2.4095036405        1.5545986420
 H         -3.8082637099        3.3836725612        2.4594750942
 C         -2.9960040384        1.5234520563        1.8754807166
 H         -1.9718547132        1.8789627157        2.0355934929
 H         -3.3012205630        1.0827860811        2.8332508898
 H         -4.6412792644        1.6520341473       -2.3578040396
 H         -5.6181180913        2.6438202399       -1.2710391026
 H         -5.6167234778        0.0358630792       -1.0309261384
 H         -5.5791902114        0.9988367756        0.4408120331
 O         -3.5530958575       -1.0501523783       -0.8675297915
 C         -2.4462779094       -1.8732061927       -0.7500355685
 O         -2.4291551649       -2.8027988052       -1.5793930462
 H          2.0688128129       -1.2345034491        1.0537859508
 C          1.9611067584       -1.4207174192       -0.0039569562
 C          0.8175261448       -2.0389129883       -0.4882183398
 C          0.7086225484       -2.2716662823       -1.8556962469
 C          1.7268307311       -1.8923327207       -2.7105521030
 C          2.8602233112       -1.2622715644       -2.2258974812
 C          2.9766812305       -1.0210460072       -0.8624330755
 N          4.1182983109       -0.3914948581       -0.3399450951
 S          3.9577445649        0.8197886537        0.8053792132
 O          5.2482043013        1.4740282248        0.8120359451
 O          3.5258348134        0.2602819210        2.0594773020
 C          2.7315393459        1.9206455980        0.1247807361
 C          3.1604392661        2.8595250456       -0.7948419699
 C          2.2297625954        3.6898649756       -1.3960582297
 C          0.8860985936        3.5616207650       -1.0769773113
 C          0.4740609914        2.6161801406       -0.1521670797
 C          1.3998056906        1.7845592596        0.4590117435
 H          1.0884159981        1.0483185557        1.1837309692
 H         -0.5685850534        2.5092177685        0.1016712352
 H          0.1559389617        4.2017190245       -1.5467914364
 H          2.5512233845        4.4304642175       -2.1104823044
 H          4.2151349835        2.9321851247       -1.0060944900
 H          4.8027353456       -0.1327143972       -1.0361386000
 H          3.6508622492       -0.9623430552       -2.8966736236
 H          1.6336009383       -2.0815003197       -3.7692469104
 H         -0.1851107798       -2.7384616959       -2.2399468752
 C         -0.2798036875       -2.4301610652        0.4726464198
 H          0.0647530110       -2.1757308217        1.4846909655
 C         -0.5487087041       -3.9208533000        0.4242928475
 C          0.4231568159       -4.8500619927        1.0850330439
 C         -0.9346926599       -4.6362126365        1.6823390773
 H         -1.6597407171       -5.4336738362        1.6191886017
 H         -1.0064998739       -4.0526532764        2.5889294353
 H          0.6336904972       -5.7969790206        0.6123060176
 H          1.2725133280       -4.4106128842        1.5869686285
 H         -1.0154328327       -4.2493790620       -0.4945985370
 O         -0.8496659209       -0.1561470893        2.0004694099
