  62
        -98.94044394
 C         -2.3220474146       -0.3610927175        0.1723846048
 C         -3.5413040843       -0.9450265856        0.5923019690
 C         -4.7003278691       -0.0447062950        0.6461484850
 C         -4.5383631416        1.2537880824        0.3322430877
 C         -5.6421274778        2.2699535223        0.2930701803
 C         -6.2658926449        2.3560202891       -1.1069991461
 C         -6.6368979655        0.9975829669       -1.7019788443
 H         -7.0938300933        1.1833188163       -2.6764297383
 H         -5.7235729277        0.4250555539       -1.8798962424
 C         -7.5955413557        0.1666782855       -0.8376147291
 H         -8.0912155225        0.8108704621       -0.1105607523
 H         -8.3714672018       -0.2535250405       -1.4809367289
 C         -6.9380265757       -1.0069431125       -0.1091227682
 H         -6.3623790180       -1.6038603976       -0.8211051984
 H         -7.7300725892       -1.6466580764        0.2891194598
 C         -6.0185820250       -0.6352924394        1.0611541801
 H         -6.5440782308        0.0350533475        1.7440882286
 H         -5.7775802907       -1.5562705727        1.6000105494
 H         -7.1554200923        2.9860235335       -1.0506875796
 H         -5.5490861604        2.8380735470       -1.7757719540
 H         -6.4016063548        2.0029526081        1.0252021580
 H         -5.2226432681        3.2426931440        0.5548798147
 O         -3.3446807776        1.7847917912       -0.0370908580
 C         -2.2094385523        0.9937749047       -0.1393710301
 O         -1.1900164661        1.6075491160       -0.5070652515
 H          1.4914712190       -0.4375766521       -0.5560146229
 C          1.2521342295       -0.3475432958        0.4897932185
 C          0.0013142988       -0.7070236207        0.9633032610
 C         -0.2627980466       -0.5688635450        2.3243210620
 C          0.7004928939       -0.0798068359        3.1842226227
 C          1.9504131196        0.2757711586        2.7076760882
 C          2.2220143695        0.1483975789        1.3509105770
 N          3.4676547326        0.5406243224        0.8356485874
 S          4.1102514418       -0.2725078608       -0.4937980772
 O          3.4970823113        0.2226945084       -1.7001597199
 O          4.0428632471       -1.7016337429       -0.2826288796
 C          5.8022720613        0.2854907202       -0.4125541478
 C          6.1009389425        1.5493651357       -0.8861383144
 C          7.4075004184        2.0037212562       -0.8050661510
 C          8.3883206811        1.1916187401       -0.2547647872
 C          8.0740025057       -0.0748403680        0.2143768047
 C          6.7686176726       -0.5349758133        0.1377234559
 H          6.4790116248       -1.5147198352        0.4820417394
 H          8.8394449022       -0.7046615048        0.6382238041
 H          9.4046616944        1.5474570003       -0.1941291925
 H          7.6558787123        2.9867952330       -1.1713789666
 H          5.3072557436        2.1400627000       -1.3135063151
 H          4.1629311457        0.6900717059        1.5538862738
 H          2.7039525103        0.6594164323        3.3785899691
 H          0.4804898143        0.0209533393        4.2364997552
 H         -1.2394357148       -0.8491861048        2.6955725541
 C         -1.0885301698       -1.2397689199        0.0671650124
 H         -1.3965338026       -2.2236457338        0.4519490451
 C         -0.6658571278       -1.3963840413       -1.3777906590
 C          0.1479072947       -2.5836503342       -1.7944893225
 C         -1.2871344821       -2.4744037951       -2.2120434975
 H         -1.5090623638       -2.2619640034       -3.2471096657
 H         -2.0092098803       -3.1188827389       -1.7321568664
 H          0.9195636968       -2.4427544257       -2.5368039302
 H          0.4051506604       -3.3037049941       -1.0321425457
 H         -0.4610334387       -0.4466642117       -1.8607759559
 O         -3.6532141989       -2.1597673136        0.9103493353
