  62
        -98.93646801
 C          1.9190694506        0.7532322977       -0.0108233123
 C          2.9601032384        0.6133214500        0.9406412990
 C          4.1071285753       -0.2408899021        0.5791251232
 C          4.1037220030       -0.8474889812       -0.6219724385
 C          5.1675384910       -1.7221985204       -1.2299092994
 C          6.3738089392       -0.9185333100       -1.7423951184
 C          6.8605106072        0.1815143476       -0.8025903642
 H          7.6385635385        0.7441163482       -1.3253510638
 H          6.0393438540        0.8726604029       -0.6040661676
 C          7.4457394698       -0.3045060065        0.5211940693
 H          7.8288038475        0.5732735558        1.0479531493
 H          8.2920070171       -0.9646227442        0.3178912437
 C          6.4759014584       -1.0317391414        1.4549210060
 H          6.9571405027       -1.0991001668        2.4350538071
 H          6.3053204140       -2.0531827324        1.1253753658
 C          5.1447058863       -0.3192010763        1.6727330489
 H          4.6366015919       -0.7832308152        2.5269526040
 H          5.3371184241        0.7147631874        1.9810434453
 H          7.1897184458       -1.6138722262       -1.9465662734
 H          6.0884115119       -0.4470440090       -2.6860301187
 H          5.4802975211       -2.4791800125       -0.5167018008
 H          4.7061852938       -2.2347203014       -2.0771151336
 O          3.0774238904       -0.6945692799       -1.5042624608
 C          1.9667729762        0.0893652243       -1.2363792870
 O          1.1266699948        0.0920067215       -2.1565162967
 O          2.9424604785        1.1956332459        2.0588039773
 C          0.7629283180        1.6595771156        0.3743393670
 C         -0.3900637264        0.8799799658        0.9525296483
 C         -0.9734503528        1.2560051560        2.1567988438
 C         -2.0406991639        0.5437501082        2.6767098719
 C         -2.5516508240       -0.5513950651        2.0041081122
 C         -1.9787316205       -0.9319479152        0.7969379619
 C         -0.9066234191       -0.2190738495        0.2796269802
 H         -0.4673988352       -0.5191745161       -0.6603409780
 N         -2.5022256981       -2.0322880078        0.0945360581
 S         -4.1633622876       -2.0770033900       -0.1181649717
 O         -4.7848486803       -2.5927924776        1.0764792503
 O         -4.3769756547       -2.8461792246       -1.3232923894
 C         -4.6415676894       -0.3754062045       -0.3604725276
 C         -4.1680216883        0.2774764410       -1.4813992876
 C         -4.4853935893        1.6139121598       -1.6627798991
 C         -5.2632788255        2.2718945516       -0.7224207846
 C         -5.7361019886        1.6008170035        0.3944413960
 C         -5.4223837194        0.2639956223        0.5808278474
 H         -5.7681178006       -0.2955319214        1.4344997758
 H         -6.3432313400        2.1145723478        1.1221590096
 H         -5.5007039232        3.3142790527       -0.8637580113
 H         -4.1166493022        2.1374209590       -2.5301196002
 H         -3.5654939037       -0.2633393860       -2.1945868310
 H         -2.0198549673       -2.2205658911       -0.7723216985
 H         -3.3771596138       -1.1230532190        2.3959287175
 H         -2.4790695080        0.8431257463        3.6161655655
 H         -0.5748670197        2.1043863959        2.6932656395
 H          1.1671382070        2.2918049077        1.1805352564
 C          0.3381966847        2.5890737826       -0.7553872071
 C         -0.9300557168        2.4326100068       -1.5333032682
 C         -0.7909340827        3.5563695547       -0.5537615939
 H         -0.6817088308        4.5629373884       -0.9274230530
 H         -1.3478517845        3.4813972847        0.3678903102
 H         -0.8944623642        2.6496465260       -2.5899127216
 H         -1.5879095094        1.6169076273       -1.2794800284
 H          1.1963093747        2.9531735876       -1.3123520219
