  62
        -98.93628424
 C         -1.5482873237       -1.4508491501       -0.3117485164
 C         -1.6460933014       -0.0404651508       -0.3121938780
 C         -3.0048379795        0.5262705762       -0.1874473008
 C         -4.0528711310       -0.3051498834       -0.0492379584
 C         -5.5174075966        0.0291904641        0.0836834710
 C         -5.8809612556        1.1853108549        1.0279520941
 C         -6.3717813802        2.4364998582        0.2973785444
 H         -7.0046868548        2.1263702863       -0.5366837499
 H         -6.9949364447        3.0180138439        0.9804619124
 C         -5.2702973055        3.3593440698       -0.2210342808
 H         -5.7452351011        4.1292435058       -0.8337447590
 H         -4.7943723461        3.8640903074        0.6227011538
 C         -4.1812647480        2.6754740983       -1.0499080098
 H         -4.6189667575        1.9344045204       -1.7177412342
 H         -3.7140058978        3.4361117767       -1.6789473675
 C         -3.0765391951        2.0289736329       -0.2002248321
 H         -3.1389276374        2.3876398639        0.8315986164
 H         -2.0957444441        2.3499080654       -0.5653330819
 H         -6.6843781587        0.8408449104        1.6811800900
 H         -5.0305664920        1.4267489332        1.6639705063
 H         -5.9868642332       -0.8940224521        0.4309089257
 H         -5.9188276811        0.2257518132       -0.9136090989
 O         -3.9069602917       -1.6615207773       -0.0382549340
 C         -2.6707461661       -2.2652162941       -0.1629982552
 O         -2.6996813594       -3.5119182168       -0.1256511785
 O         -0.6526236963        0.7242396042       -0.4258360271
 C         -0.1975079898       -2.1389669302       -0.4253344054
 C          0.6029102137       -1.8383434034        0.8191510801
 C          0.1385203622       -2.3107716496        2.0448166622
 C          0.8305294866       -2.0458346114        3.2102190861
 C          1.9884096241       -1.2860505713        3.1812863821
 C          2.4558190545       -0.8040667415        1.9664752311
 C          1.7726965712       -1.0981011487        0.7935285399
 H          2.1592685351       -0.7341405939       -0.1411146040
 N          3.6328237560       -0.0351726636        1.8862982467
 S          3.5103734475        1.4953526781        1.1903568371
 O          4.7090374175        2.1799288162        1.6316940010
 O          2.2617501102        2.1307071150        1.5404179016
 C          3.6269234126        1.2142948464       -0.5624074718
 C          2.5407821490        1.4654787168       -1.3775179336
 C          2.6663500270        1.2376730082       -2.7396356193
 C          3.8630456775        0.7658916281       -3.2571729896
 C          4.9438432276        0.5214604023       -2.4228420409
 C          4.8284031521        0.7498867465       -1.0613333842
 H          5.6439994930        0.5817560481       -0.3780982178
 H          5.8718221642        0.1528049803       -2.8292338889
 H          3.9512652216        0.5863992797       -4.3173385676
 H          1.8232594915        1.4225694720       -3.3867831391
 H          1.6140101495        1.7968082820       -0.9346703347
 H          4.1315044427        0.0357374101        2.7629519084
 H          2.5229788694       -1.0661669623        4.0935393267
 H          0.4622869495       -2.4241278864        4.1522445390
 H         -0.7749494811       -2.8900155854        2.0673395479
 H         -0.4110809375       -3.2171609053       -0.4358428385
 C          0.5052711534       -1.7626611780       -1.7119500310
 C          1.6301277832       -2.6104936429       -2.2227973093
 C          0.3102046924       -2.6083360605       -2.9324124675
 H          0.2394415280       -2.1183110726       -3.8916036876
 H         -0.3228462782       -3.4790405809       -2.8403249916
 H          2.4691052157       -2.1204579948       -2.6934700855
 H          1.8945677982       -3.4855557587       -1.6488020095
 H          0.5729250916       -0.6917064515       -1.8562175937
