  62
        -98.94835378
 C          0.8462434709        1.3000814366        0.0570577106
 C          1.7311463599        0.9631810583        1.1071440883
 C          2.5083660345       -0.2685477568        0.9205075707
 C          2.3183439742       -1.0035927424       -0.1907040102
 C          3.1089776898       -2.2275260505       -0.5497200590
 C          4.3513579879       -1.8627116475       -1.3754637279
 C          5.1895127417       -0.7356906130       -0.7726219988
 H          6.0524460990       -0.5865710229       -1.4251488398
 H          4.6091594235        0.1895429081       -0.7899622329
 C          5.6723887573       -1.0014555150        0.6599301226
 H          6.7261316397       -0.7243892753        0.7332643533
 H          5.6011002468       -2.0663124730        0.8845114226
 C          4.9277621428       -0.2078302085        1.7348700762
 H          4.9215137242        0.8525622339        1.4700783175
 H          5.4771505244       -0.3068297392        2.6749956959
 C          3.4816073004       -0.6443419458        2.0021613011
 H          3.4493600572       -1.7193532328        2.1926425753
 H          3.1392973409       -0.1286505924        2.9046726163
 H          4.9674645066       -2.7571607035       -1.4838101171
 H          4.0246918048       -1.5508106189       -2.3698933299
 H          3.4024997091       -2.7457456449        0.3611592879
 H          2.4735068426       -2.8839678610       -1.1442129428
 O          1.4177470867       -0.6774492272       -1.1518678831
 C          0.6606748086        0.4808552418       -1.0566545855
 O         -0.1218878541        0.6648602783       -2.0065620118
 H         -1.2771637231        0.4887722336        1.1837603987
 C         -1.9438225776        1.1534052223        0.6536906180
 C         -1.4394308784        2.2972996741        0.0489287330
 C         -2.3234092923        3.1457723432       -0.6069301671
 C         -3.6727257966        2.8438929822       -0.6648196131
 C         -4.1668037255        1.6904379434       -0.0844702767
 C         -3.2904345102        0.8380530790        0.5790738556
 N         -3.7571045530       -0.3418209127        1.1779008677
 S         -2.8007842220       -1.6935331432        1.3231148756
 O         -3.7412644191       -2.7543440807        1.6241492287
 O         -1.7716590261       -1.4845655055        2.3130137810
 C         -2.0531766309       -2.0444573229       -0.2601462081
 C         -0.9794400502       -2.9123819983       -0.2473717791
 C         -0.4165097525       -3.3062228726       -1.4491696375
 C         -0.9211392459       -2.8123790372       -2.6412422785
 C         -1.9929828980       -1.9360912111       -2.6376890496
 C         -2.5766988982       -1.5568294467       -1.4392845123
 H         -3.4111109699       -0.8751583342       -1.4270426060
 H         -2.3762642051       -1.5400329016       -3.5638965382
 H         -0.4715715039       -3.1066025714       -3.5764737481
 H          0.4124171134       -3.9963325058       -1.4506305363
 H         -0.6030656492       -3.2544237647        0.7043117880
 H         -4.7199624546       -0.5780780083        0.9894351745
 H         -5.2169432368        1.4477593178       -0.1407989367
 H         -4.3479845647        3.5108723708       -1.1785971757
 H         -1.9548842913        4.0430991274       -1.0760360381
 C          0.0383234383        2.5792540139        0.1554871634
 H          0.2383406569        2.9761898921        1.1628732111
 C          0.5294647373        3.5832758538       -0.8690666891
 C          0.5069514787        5.0519863860       -0.5707637621
 C          1.8106145169        4.3144429896       -0.6054232646
 H          2.4848185213        4.4905772662       -1.4301573152
 H          2.3103892281        4.1120997231        0.3309419581
 H          0.1285875240        5.3621125895        0.3916432737
 H          0.2882429377        5.7386148963       -1.3747398713
 H          0.3369208059        3.2622700762       -1.8868074116
 O          1.8713603256        1.6651788099        2.1466017521
