  62
        -98.94079340
 C         -2.2824703062       -0.9655336621       -0.2676500387
 C         -3.6064514171       -1.1821156998        0.1862752712
 C         -4.6218802113       -0.2630621969       -0.3386106993
 C         -4.2649948726        0.6960449020       -1.2121435017
 C         -5.1873148471        1.6985856571       -1.8512502592
 C         -5.4544185749        2.9373772750       -0.9852058092
 C         -6.3627942675        2.7024295490        0.2223425853
 H         -6.6386844380        3.6847188691        0.6109369975
 H         -7.2800302475        2.2121272445       -0.1050692569
 C         -5.7166514031        1.8887315357        1.3523650938
 H         -5.9185413675        2.3726791250        2.3106195206
 H         -4.6319118380        1.8807185469        1.2209340568
 C         -6.2136289903        0.4469420163        1.4598478986
 H         -5.6666277122       -0.0444032937        2.2684694553
 H         -7.2742297244        0.4436323423        1.7203505830
 C         -6.0213680189       -0.3850578362        0.1848493060
 H         -6.1937218428       -1.4354876716        0.4311586293
 H         -6.7400198310       -0.0806425753       -0.5754472954
 H         -4.4959774748        3.3399849251       -0.6488749552
 H         -5.9234828640        3.6877936089       -1.6257213415
 H         -6.1327751455        1.2185404916       -2.1048075716
 H         -4.7016823593        2.0219047961       -2.7744792543
 O         -2.9841971360        0.8587763012       -1.6401155825
 C         -1.9583361769        0.0556920754       -1.1604797735
 O         -0.8321876019        0.3470324798       -1.6082678968
 O         -3.9225915119       -2.0969990730        0.9928253781
 C         -1.1729818545       -1.8532219185        0.2694003611
 C         -0.2128826761       -1.0046988777        1.0660459253
 C         -0.6992094378       -0.3385807202        2.1893202426
 C          0.1240955149        0.4790290005        2.9370637667
 C          1.4482522381        0.6554768865        2.5746450641
 C          1.9466277009       -0.0107806000        1.4618961006
 C          1.1190410780       -0.8441605093        0.7200477284
 H          1.5256383959       -1.3401708061       -0.1441915913
 N          3.3043766005        0.1209809356        1.1109233728
 S          3.7393742454        0.3336085306       -0.5081885791
 O          3.1155774786        1.5232283707       -1.0443538889
 O          3.5246340167       -0.8969566062       -1.2244577053
 C          5.4912508413        0.6079660307       -0.3060693526
 C          6.3085295579       -0.4823635863       -0.0756139861
 C          7.6660123222       -0.2748271349        0.1098365571
 C          8.1813782651        1.0121488082        0.0626402557
 C          7.3494364951        2.0963923373       -0.1717681021
 C          5.9904217520        1.8954693647       -0.3567584569
 H          5.3062507251        2.7061687258       -0.5502341649
 H          7.7527412689        3.0954521371       -0.2115134339
 H          9.2384440088        1.1708944685        0.2064913228
 H          8.3164643636       -1.1155503420        0.2895558032
 H          5.8644667828       -1.4637757290       -0.0560066197
 H          3.7650098827        0.8292113400        1.6688429788
 H          2.0914327169        1.3031804114        3.1514710218
 H         -0.2671918974        0.9906240497        3.8036666247
 H         -1.7378927040       -0.4693214660        2.4615508241
 H         -1.6687927492       -2.5504241151        0.9609618812
 C         -0.5194379733       -2.6499407384       -0.8378864575
 C          0.2023413246       -3.9221335431       -0.5120069686
 C         -1.1093313031       -3.9686321946       -1.2349834806
 H         -1.1146755647       -4.2355431876       -2.2811386741
 H         -1.9808418233       -4.3058804529       -0.6930233272
 H          1.1030159604       -4.1545307835       -1.0598310039
 H          0.2224299721       -4.2314248973        0.5220781154
 H         -0.1174015733       -2.0250776653       -1.6281640922
