  62
        -98.93724574
 C          2.4835821154        1.0392775301       -0.1315482199
 C          3.6291100382        0.9431957479        0.6911129707
 C          4.7067619202        0.0591778666        0.2143564035
 C          4.5476588637       -0.5914338795       -0.9515185850
 C          5.4918474044       -1.5743789136       -1.5868945627
 C          5.1273874615       -3.0145865577       -1.1880764485
 C          5.7636528783       -3.5035840755        0.1124607467
 H          5.3249989840       -4.4772098660        0.3427012457
 H          6.8333059426       -3.6557330485       -0.0463889103
 C          5.5753021638       -2.5817814019        1.3201179104
 H          5.7259476812       -3.1773147465        2.2226902462
 H          4.5482185285       -2.2129596525        1.3445379448
 C          6.5558446813       -1.3996463848        1.3360011085
 H          7.0503797539       -1.3531245517        2.3085294716
 H          7.3395140239       -1.5767707908        0.5996474909
 C          5.9235881873       -0.0207897825        1.0957067995
 H          5.5998112182        0.4020919828        2.0520482587
 H          6.6864814908        0.6572790517        0.6986088357
 H          4.0387039520       -3.0752648338       -1.1115367233
 H          5.4364117759       -3.6886987340       -1.9894834311
 H          6.5209963526       -1.3428148921       -1.3291819908
 H          5.3673398627       -1.4707635632       -2.6667654781
 O          3.4261529227       -0.4693718443       -1.7139978248
 C          2.3690525982        0.3377197222       -1.3311341822
 O          1.4129068839        0.3475734178       -2.1289750886
 O          3.7443243426        1.5634654865        1.7831775965
 C          1.3374380870        1.9329092101        0.3075374380
 C          0.0878495641        1.1065836474        0.4844536828
 C          0.1141091821        0.0461701035        1.3874901601
 C         -1.0005553337       -0.7452447830        1.5822642217
 C         -2.1681284967       -0.5000339119        0.8796717363
 C         -2.2091340356        0.5586594941       -0.0156811759
 C         -1.0874452208        1.3584060695       -0.2035901065
 H         -1.1365636525        2.1753938525       -0.9063839550
 N         -3.3848078928        0.8064344863       -0.7408905310
 S         -4.8562209459        0.8212297077        0.0607018836
 O         -5.7251690650        1.6322538682       -0.7638792505
 O         -4.7060038961        1.2372307449        1.4358722927
 C         -5.4051041556       -0.8710878886       -0.0096469968
 C         -5.7707712691       -1.5247626046        1.1506863950
 C         -6.2072654929       -2.8381163514        1.0712689629
 C         -6.2711621999       -3.4705295105       -0.1608235857
 C         -5.9029564941       -2.7990355774       -1.3172742610
 C         -5.4665228248       -1.4859161831       -1.2447692110
 H         -5.1734530408       -0.9303113609       -2.1199550305
 H         -5.9534992484       -3.2942922020       -2.2736218477
 H         -6.6101089978       -4.4927349939       -0.2206708535
 H         -6.4942667592       -3.3617345293        1.9690440358
 H         -5.6994755919       -0.9948661124        2.0872697599
 H         -3.3133288887        1.5710807331       -1.3958353968
 H         -3.0403110205       -1.1166813023        1.0225643193
 H         -0.9621872119       -1.5639834061        2.2848391282
 H          1.0269763111       -0.1477577107        1.9343424866
 H          1.6307836829        2.3196152721        1.2944972398
 C          1.1800036243        3.1004402543       -0.6429428994
 C          0.5277235576        4.3662305356       -0.1749727331
 C          2.0052872998        4.3310914576       -0.4224072953
 H          2.3973210828        4.8502324854       -1.2840953425
 H          2.6686029439        4.3377795195        0.4300219324
 H         -0.0944063905        4.9143814095       -0.8667098787
 H          0.1842038555        4.4021940657        0.8479565496
 H          1.0171257461        2.7877335824       -1.6684130192
