  62
        -98.94325665
 C          1.2963387359        1.0222996955       -0.0121348008
 C          1.7972428591       -0.0592528146        0.7518905179
 C          2.7436199062       -0.9480662592        0.0644093052
 C          3.0579679953       -0.7054082185       -1.2212940867
 C          4.0442475573       -1.5008292955       -2.0257691456
 C          5.4567186612       -0.9097998013       -1.9160552688
 C          5.8994173429       -0.6300575422       -0.4798416676
 H          5.2747414209        0.1631974459       -0.0629408861
 H          6.9204146325       -0.2448037893       -0.5240324452
 C          5.8534032470       -1.8519601670        0.4483201444
 H          6.7747740064       -1.8813045590        1.0337887114
 H          5.8183900990       -2.7665608337       -0.1448486789
 C          4.6923463795       -1.8481663874        1.4443162791
 H          4.6701925117       -0.8934410856        1.9755699250
 H          4.8780001023       -2.6307290702        2.1847571795
 C          3.3014965588       -2.1018330331        0.8493355665
 H          2.6088693739       -2.2582219819        1.6814462745
 H          3.3214785990       -3.0090055178        0.2418310224
 H          5.4826322762        0.0303817354       -2.4719556912
 H          6.1575106013       -1.6016023606       -2.3871050346
 H          3.7320213434       -1.4806009050       -3.0714553179
 H          4.0432004472       -2.5318589924       -1.6769310334
 O          2.5379594501        0.3297016216       -1.9302986250
 C          1.6466277676        1.2217060251       -1.3472973844
 O          1.2437056138        2.1183905635       -2.1117784060
 O          1.4637151527       -0.2729398117        1.9467379124
 C          0.3108267725        1.9708691280        0.6381977189
 C         -1.0370976422        1.9329395478       -0.0404003538
 C         -1.9128160115        3.0127845486       -0.0104189326
 C         -3.1719140695        2.9201650877       -0.5783618737
 C         -3.5907089014        1.7506435170       -1.1880015550
 C         -2.7213178323        0.6715319925       -1.2310073795
 C         -1.4638124326        0.7637790568       -0.6549747459
 H         -0.8010552635       -0.0927911714       -0.6834662967
 N         -3.1600521837       -0.5471589409       -1.8125011016
 S         -4.0828222840       -1.4644960933       -0.7505990525
 O         -4.2556612892       -2.7547588781       -1.3785434387
 O         -5.2841240815       -0.7312221780       -0.4465213544
 C         -3.0572339935       -1.6083273073        0.7005185667
 C         -3.1042343100       -0.6115497613        1.6544935827
 C         -2.2097107116       -0.6560025869        2.7116059881
 C         -1.2844250147       -1.6847199053        2.7940231680
 C         -1.2537146407       -2.6802461323        1.8298565641
 C         -2.1417291246       -2.6396579246        0.7673785460
 H         -2.1455621822       -3.3911221315       -0.0067746576
 H         -0.5296625057       -3.4766866940        1.8958596098
 H         -0.5721303271       -1.7019645955        3.6030102848
 H         -2.2263689628        0.1195107556        3.4604016569
 H         -3.8338860289        0.1755584924        1.5524289332
 H         -2.3928332311       -1.1189757505       -2.1393542894
 H         -4.5742218152        1.6511477638       -1.6168466373
 H         -3.8374948209        3.7690040124       -0.5432062903
 H         -1.6074530925        3.9308548879        0.4648438734
 H          0.1739040257        1.5852408191        1.6608491392
 C          0.8892372671        3.3700475785        0.7208091672
 C          0.6114047087        4.2432844912        1.9069771785
 C          1.9715205657        3.6436114321        1.7209014203
 H          2.7893083601        4.2875834642        1.4342241506
 H          2.2638121881        2.8291017561        2.3676935055
 H          0.4959770765        5.3050998901        1.7489927459
 H         -0.0114051422        3.8417305384        2.6919708525
 H          0.9782311395        3.8396387808       -0.2523554519
