  62
        -98.93452056
 C         -2.3115495477       -0.4052883073        0.1493887172
 C         -3.5094678036       -1.0121443728        0.5911380352
 C         -4.7018043108       -0.1487178290        0.6427675963
 C         -4.5844672483        1.1451198514        0.2965817390
 C         -5.6766305395        2.1767405052        0.2317250457
 C         -6.2566606348        2.2641247563       -1.1901408534
 C         -7.3908109123        1.2829849529       -1.4843057895
 H         -8.2844451394        1.5943198000       -0.9393756714
 H         -7.6152946518        1.3564774592       -2.5509001083
 C         -7.0959484447       -0.1803071589       -1.1439786860
 H         -7.7836650934       -0.8027413716       -1.7197789882
 H         -6.0843089110       -0.4362242717       -1.4642746474
 C         -7.2688069765       -0.4997366657        0.3484389893
 H         -7.9138387444       -1.3739426660        0.4580309489
 H         -7.7863062745        0.3287030435        0.8317477479
 C         -5.9703515642       -0.8104082841        1.1083256248
 H         -6.1145070482       -0.5814985629        2.1694765996
 H         -5.7602187838       -1.8827956498        1.0470658192
 H         -6.6338964879        3.2756987868       -1.3532471198
 H         -5.4373442843        2.1034178048       -1.8956466750
 H         -6.4524203257        1.9635375320        0.9609634059
 H         -5.2139212141        3.1346281950        0.4779483974
 O         -3.4056874687        1.6937888980       -0.1086054584
 C         -2.2461498686        0.9432285158       -0.1994574079
 O         -1.2508368507        1.5805212000       -0.5925008270
 O         -3.5817490292       -2.2254407979        0.9277598701
 C         -1.0508763244       -1.2459088264        0.0612660108
 C          0.0239969709       -0.6550050748        0.9391961393
 C         -0.2523698922       -0.4573242450        2.2904866524
 C          0.6969822837        0.0851432439        3.1336142279
 C          1.9464005549        0.4336924968        2.6506293397
 C          2.2311999640        0.2442531968        1.3039927745
 C          1.2741241905       -0.3020080871        0.4589981742
 H          1.5241782421       -0.4384073955       -0.5793902052
 N          3.4778022245        0.6212384071        0.7802544286
 S          4.1456687639       -0.2724104132       -0.4840269765
 O          3.5615085427        0.1543630380       -1.7302985743
 O          4.0632248380       -1.6858635702       -0.1902685269
 C          5.8394851502        0.2797138290       -0.3963591866
 C          6.7794386888       -0.5010942312        0.2493271565
 C          8.0855144479       -0.0446400215        0.3346938674
 C          8.4268597887        1.1790758604       -0.2211509544
 C          7.4725708571        1.9513373329       -0.8670652589
 C          6.1654136936        1.5003287929       -0.9572735702
 H          5.3920957027        2.0607202900       -1.4566798967
 H          7.7420577184        2.9009466401       -1.3005857757
 H          9.4436354575        1.5323526451       -0.1533774062
 H          8.8304669832       -0.6439675210        0.8328016956
 H          6.4696713285       -1.4489815067        0.6591194890
 H          4.1611065802        0.8273936497        1.4958655693
 H          2.6896720568        0.8579267163        3.3084749276
 H          0.4666918015        0.2328178611        4.1781331225
 H         -1.2278149604       -0.7341774871        2.6675806401
 H         -1.3246029262       -2.2294173988        0.4720794853
 C         -0.6274221080       -1.4249222821       -1.3808204096
 C          0.2153483353       -2.6003401897       -1.7728873699
 C         -1.2230276314       -2.5372375843       -2.1883868541
 H         -1.4527879700       -2.3542102879       -3.2273158132
 H         -1.9273684920       -3.1884797350       -1.6916756556
 H          0.9813848605       -2.4569254439       -2.5205845116
 H          0.4930583852       -3.2958830627       -0.9950603604
 H         -0.4482645692       -0.4812675944       -1.8855056397
