  62
        -98.93981049
 C         -2.1980050433       -0.7894106500        0.1069613357
 C         -2.4668451330        0.3120223977        0.9538853009
 C         -3.1301249730        1.4580793883        0.3225256932
 C         -3.3984740835        1.4293674075       -0.9958184656
 C         -4.0488264783        2.5292764746       -1.7903421419
 C         -5.5823661318        2.5205225027       -1.7262561702
 C         -6.1807588154        2.9782955235       -0.3954835029
 H         -5.7529466107        3.9422639958       -0.1183559483
 H         -7.2489881231        3.1315515544       -0.5609877402
 C         -5.9989817256        1.9812360068        0.7575104397
 H         -5.7424405492        0.9992661083        0.3532641314
 H         -6.9437919358        1.8687976838        1.2940535991
 C         -4.9410074198        2.3848998559        1.7844996837
 H         -4.8715924942        1.5922763292        2.5339363558
 H         -5.2527518467        3.3007663456        2.2914512521
 C         -3.5411290459        2.6049066611        1.1961533988
 H         -3.5109904005        3.5398174870        0.6370592987
 H         -2.8279164563        2.6663577996        2.0219001880
 H         -5.9356033379        1.5129683641       -1.9574771763
 H         -5.9448165834        3.1877300930       -2.5116543853
 H         -3.7467848982        2.3813375811       -2.8293342430
 H         -3.6749586032        3.4965965312       -1.4537041785
 O         -3.0795085396        0.3699485631       -1.7858801011
 C         -2.4885576290       -0.7692371758       -1.2575870101
 O         -2.2743116550       -1.6679881533       -2.0919150223
 O         -2.1580159774        0.3399529880        2.1764396106
 C         -1.5350119681       -2.0218523567        0.6952393485
 C         -0.1834824549       -2.2311406673        0.0563983161
 C          0.2204045330       -3.4291060106       -0.5157921782
 C          1.4770403954       -3.5425361568       -1.0865243373
 C          2.3545013419       -2.4748315169       -1.0965201841
 C          1.9661881966       -1.2745615871       -0.5136680434
 C          0.7093006157       -1.1654255138        0.0611792587
 H          0.4048562122       -0.2310880698        0.5174705531
 N          2.8429584392       -0.1698953308       -0.5264668928
 S          4.4339573404       -0.4540990861       -0.0283942633
 O          5.1402145236       -1.1059927454       -1.1019812091
 O          4.4417040792       -1.1445917012        1.2426991710
 C          5.0341704511        1.2120233130        0.1631338773
 C          5.4294515796        1.9062545700       -0.9645298755
 C          5.8757394696        3.2106581114       -0.8249904995
 C          5.9187957980        3.7956151623        0.4320372885
 C          5.5204474976        3.0853957823        1.5544909712
 C          5.0713303190        1.7807460753        1.4218805369
 H          4.7599041877        1.1887695095        2.2677474972
 H          5.5579571876        3.5414201160        2.5307310773
 H          6.2681419417        4.8104829759        0.5383898656
 H          6.1889298644        3.7655123423       -1.6946201583
 H          5.3875864494        1.4078635658       -1.9188322207
 H          2.4572158298        0.6122071163       -0.0136684401
 H          3.3350904249       -2.5561854313       -1.5363439136
 H          1.7770513479       -4.4782353058       -1.5340011744
 H         -0.4481730359       -4.2739737341       -0.5220209509
 H         -1.3722334009       -1.7855844249        1.7576998286
 C         -2.4524220469       -3.2218423358        0.6000296252
 C         -2.3238297731       -4.3460776273        1.5826345490
 C         -3.4984461097       -3.4186183099        1.6546535387
 H         -4.4682210621       -3.7878447069        1.3565165444
 H         -3.5343533170       -2.6984347200        2.4591373880
 H         -2.4888754655       -5.3552568662        1.2367743820
 H         -1.5618892641       -4.2599299395        2.3426022314
 H         -2.7224248702       -3.4610754168       -0.4222444354
