  62
        -98.94032752
 C         -2.6313178714       -1.1494361396        0.2723139693
 C         -2.5642264239       -0.3077271003       -0.8660781904
 C         -3.4222080500        0.8853943716       -0.8266380785
 C         -4.2053819534        1.1190693960        0.2409324132
 C         -5.1514742925        2.2765688499        0.4113995097
 C         -4.4847760620        3.5559120451        0.9356546242
 C         -3.5869503680        4.2807433900       -0.0680529184
 H         -4.1379475065        4.4437296422       -0.9947161861
 H         -3.3621543425        5.2621437008        0.3543295250
 C         -2.2658444850        3.5599089939       -0.3722488190
 H         -2.0712527180        2.8142956400        0.4026636475
 H         -1.4429585170        4.2774320656       -0.3374120005
 C         -2.2156693019        2.8777147488       -1.7396114405
 H         -1.2559700406        2.3623420006       -1.8311156179
 H         -2.2705651436        3.6324734324       -2.5270738762
 C         -3.3288401584        1.8477351298       -1.9718963855
 H         -4.2828202933        2.3510172998       -2.1270737019
 H         -3.0826713599        1.2747936188       -2.8690872636
 H         -3.9066241881        3.3076175062        1.8290110716
 H         -5.2826045457        4.2387971761        1.2365971665
 H         -5.9039012707        1.9589309600        1.1366039431
 H         -5.6485411011        2.4858050469       -0.5361786646
 O         -4.2343362679        0.2906106513        1.3197771145
 C         -3.4267240015       -0.8346950427        1.3763013490
 O         -3.5028769118       -1.4630436809        2.4521393143
 O         -1.8351082889       -0.5261825096       -1.8658883048
 C         -1.7656206416       -2.3920351319        0.3914754723
 C         -0.3544059215       -2.0744035138       -0.0421835520
 C          0.3304743637       -2.7730233760       -1.0265916062
 C          1.6266785009       -2.4204946796       -1.3610983220
 C          2.2649231289       -1.3697323182       -0.7293776792
 C          1.5915009735       -0.6668003595        0.2614748422
 C          0.2988221295       -1.0306327669        0.6032093885
 H         -0.2262618932       -0.4824271888        1.3776721195
 N          2.2232978375        0.4171946306        0.8967179112
 S          3.7640382880        0.1861587305        1.5211975188
 O          3.9722145249       -1.1863811530        1.9216713713
 O          3.9040077395        1.1855307763        2.5582741382
 C          4.8441448831        0.6001500812        0.1681743853
 C          4.6922214919        1.8352712735       -0.4308366093
 C          5.5312300838        2.1778069920       -1.4790602117
 C          6.5044073850        1.2861870071       -1.9055273354
 C          6.6464550622        0.0514744569       -1.2911169018
 C          5.8095100372       -0.2979998288       -0.2426549790
 H          5.8785020839       -1.2489976675        0.2610358659
 H          7.4036495671       -0.6399492012       -1.6242270774
 H          7.1558759974        1.5556758396       -2.7217657626
 H          5.4230621701        3.1367753435       -1.9597451885
 H          3.9253801451        2.4994852298       -0.0683072802
 H          1.6367536246        0.8946332294        1.5655021472
 H          3.2703106671       -1.0870780954       -0.9955615923
 H          2.1446082843       -2.9678082803       -2.1338983929
 H         -0.1567625419       -3.5793102218       -1.5492738773
 H         -1.7371962379       -2.6154419786        1.4716771961
 C         -2.3446318829       -3.6248006520       -0.2867430906
 C         -3.8228367841       -3.7749052681       -0.4852260408
 C         -2.9240280725       -3.5814818428       -1.6675239720
 H         -2.7523676594       -4.4243050489       -2.3210753798
 H         -2.9331637338       -2.6296508090       -2.1737733778
 H         -4.2642450799       -4.7470721084       -0.3241588458
 H         -4.4555435928       -2.9537217260       -0.1802793429
 H         -1.8067127174       -4.5266463658       -0.0105218454
