  62
        -98.94507516
 C          1.5509881493        0.8042493405        0.1123093703
 C          2.8329778791        1.3721309309        0.2990493305
 C          3.9033385893        0.4288906711        0.6426797505
 C          3.6203019896       -0.8789342390        0.7850099803
 C          4.6007840299       -1.9608113588        1.1493398203
 C          5.3953892001       -2.5099375784       -0.0435713297
 C          6.4694053600       -1.5727957081       -0.5974679594
 H          7.1108296998       -1.2347977880        0.2170866907
 H          7.0892942002       -2.1616983378       -1.2765558595
 C          5.9197521397       -0.3591044281       -1.3600171694
 H          6.4732015198       -0.2342269979       -2.2935291093
 H          4.8762658598       -0.5388653784       -1.6286462795
 C          6.0124790293        0.9634996218       -0.5990566292
 H          7.0616389692        1.2234048220       -0.4411763590
 H          5.5612968092        1.7454815618       -1.2153109591
 C          5.2997228992        0.9611323114        0.7595789907
 H          5.2337387588        1.9929890514        1.1136418809
 H          5.8708221392        0.3795314215        1.4830112507
 H          5.8828352903       -3.4305182784        0.2857078603
 H          4.6947066903       -2.7711715285       -0.8398088398
 H          5.2910845897       -1.5909192987        1.9079399204
 H          4.0166273300       -2.7773279290        1.5788853201
 O          2.3664901798       -1.3803612593        0.6277354801
 C          1.3036143296       -0.5594233895        0.2738510801
 O          0.2176572298       -1.1513002498        0.1433888099
 O          3.0697514688        2.6058153309        0.1916279407
 C          0.3942561391        1.7032458503       -0.2818751497
 C         -0.7309868110        1.5757457299        0.7137050001
 C         -0.4475772012        1.7039959098        2.0717577902
 C         -1.4478048313        1.5882760794        3.0163823900
 C         -2.7527318112        1.3348196491        2.6296988598
 C         -3.0481745210        1.2168698492        1.2778960898
 C         -2.0418946609        1.3456688196        0.3292441999
 H         -2.3050258408        1.2673440797       -0.7114185901
 N         -4.3636148009        0.9856870189        0.8528265696
 S         -4.6734988605        0.0553444990       -0.4983124105
 O         -4.4016370105        0.8111515592       -1.6954588104
 O         -6.0480900504       -0.3661124914       -0.3255204307
 C         -3.5947733301       -1.3601637707       -0.3975169606
 C         -3.6458790700       -2.1430243109        0.7380566993
 C         -2.8277155898       -3.2567710907        0.8197067393
 C         -1.9802319396       -3.5697188803       -0.2310454007
 C         -1.9444086696       -2.7767637702       -1.3656059106
 C         -2.7571268099       -1.6589981504       -1.4508738905
 H         -2.7538280700       -1.0110865803       -2.3134359404
 H         -1.2780187995       -3.0189455699       -2.1780518305
 H         -1.3375683993       -4.4332568602       -0.1633628307
 H         -2.8482963597       -3.8746048308        1.7033581192
 H         -4.3215897702       -1.8796655212        1.5358496493
 H         -5.0283772909        0.8104277287        1.5914379295
 H         -3.5349352212        1.2361606988        3.3666623097
 H         -1.2108808514        1.6886074993        4.0649164601
 H          0.5732383887        1.8925737100        2.3755935503
 H          0.7868015588        2.7299449704       -0.2298283596
 C         -0.0273918107        1.4139080204       -1.7071761898
 C         -0.6707312709        2.4820731903       -2.5381899998
 C          0.7297718093        2.0406609807       -2.8377694497
 H          0.9091977995        1.4554026609       -3.7272353697
 H          1.5411051991        2.7068496509       -2.5826321295
 H         -1.4620544207        2.2016666502       -3.2176128999
 H         -0.8101818912        3.4513875502       -2.0836227697
 H         -0.3660008704        0.3916031503       -1.8381665400
