  62
        -98.94102144
 C          2.3240571710        0.9196526800       -0.4301835887
 C          3.2442682106        0.2442192099        0.4136504216
 C          3.5897931607       -1.1328292201        0.0443443016
 C          3.0226737010       -1.6774389000       -1.0470157287
 C          3.2321940511       -3.0904849700       -1.5080480487
 C          2.1859366708       -4.0344227499       -0.8996471292
 C          2.0297497203       -3.8921256001        0.6145231708
 H          1.6069791803       -2.9086859001        0.8357093507
 H          1.2937425901       -4.6328874500        0.9347645205
 C          3.3289758400       -4.0830088302        1.4099204812
 H          3.1216465396       -4.7249894803        2.2685010111
 H          4.0684754302       -4.5946540702        0.7929603914
 C          3.9332595099       -2.7885968003        1.9568424416
 H          4.7100025196       -3.0538549704        2.6789511718
 H          3.1656158697       -2.2241219703        2.4923135213
 C          4.5734808203       -1.8611848103        0.9167470719
 H          5.1235183502       -1.0853842404        1.4572765821
 H          5.2822985905       -2.4251829303        0.3070615321
 H          2.4637889408       -5.0613499899       -1.1448941592
 H          1.2183551810       -3.8218684198       -1.3611833995
 H          4.2337771310       -3.4123164401       -1.2286677184
 H          3.1413142815       -3.1140744099       -2.5953512287
 O          2.1558363613       -1.0009932999       -1.8406959189
 C          1.7742938013        0.3046206201       -1.5559653489
 O          0.9780679017        0.7768045903       -2.3910898492
 O          3.7646774303        0.7797804097        1.4299135718
 C          1.9531940809        2.3338512900       -0.0158503387
 C          0.7109177106        2.3163219200        0.8437874809
 C          0.7517983702        2.7848123699        2.1520337309
 C         -0.3785255201        2.7497393399        2.9488113305
 C         -1.5646640200        2.2362336700        2.4587549601
 C         -1.6173297295        1.7686488201        1.1494366200
 C         -0.4868847092        1.8202042701        0.3471192504
 H         -0.5422130089        1.4441015202       -0.6634733696
 N         -2.8153686594        1.2610801103        0.6224937595
 S         -2.7341251091       -0.0411916796       -0.4530966605
 O         -1.7267068393       -0.9812040698       -0.0146602303
 O         -2.6209951486        0.4711948905       -1.7940825305
 C         -4.3647125492       -0.7309867696       -0.2259484012
 C         -5.4254025889       -0.1547023394       -0.8995262215
 C         -6.7003865190       -0.6597763193       -0.7002867620
 C         -6.8932245994       -1.7268670794        0.1646932878
 C         -5.8192434897       -2.2965887795        0.8317756182
 C         -4.5415253096       -1.7946913396        0.6382624087
 H         -3.6754492098       -2.2094525597        1.1288078489
 H         -5.9711201700       -3.1283504096        1.5006135280
 H         -7.8862889895       -2.1188272494        0.3174828574
 H         -7.5368439888       -0.2209383792       -1.2197812723
 H         -5.2234311086        0.6655837806       -1.5684486214
 H         -3.5251348796        1.1168332702        1.3281021193
 H         -2.4455192502        2.1958962000        3.0813809098
 H         -0.3321204704        3.1136909398        3.9639281606
 H          1.6846151501        3.1587665998        2.5475995613
 H          2.7868306107        2.6749469899        0.6142531417
 C          1.7955579414        3.3082061501       -1.1650617586
 C          1.9783464614        4.7721166601       -0.9019352784
 C          3.0028096116        4.0189981201       -1.6952506581
 H          3.0688396720        4.1935781202       -2.7585091081
 H          3.9530653415        3.8039441100       -1.2284296978
 H          1.3382075316        5.4699182102       -1.4192681586
 H          2.2366382911        5.0714136700        0.1025226017
 H          1.0376748516        3.0139991702       -1.8794091389
