  62
        -98.94451350
 C          2.6516779805       -1.2858488594       -0.1161180857
 C          2.5622252912       -0.2904413335        0.8870991172
 C          3.5209151715        0.8196615105        0.7761796524
 C          4.4134278091        0.8278519669       -0.2301265807
 C          5.4063623713        1.9223270233       -0.4906493378
 C          4.8300086253        2.9789269843       -1.4434489981
 C          3.4376854997        3.4732341009       -1.0500879187
 H          3.1473033138        4.2381568073       -1.7735608940
 H          2.7227350594        2.6526476310       -1.1491134933
 C          3.3464281271        4.0525573966        0.3685150628
 H          4.3437499130        4.3038188707        0.7316128627
 H          2.7706157927        4.9797123457        0.3315101842
 C          2.6533270081        3.1411107162        1.3833888748
 H          2.4489701970        3.7283288696        2.2830501132
 H          1.6887348489        2.8132159738        0.9848574515
 C          3.4463937457        1.9014041687        1.8166968250
 H          2.9277966181        1.4596910963        2.6727687535
 H          4.4469547537        2.1988745696        2.1372357095
 H          5.5200346820        3.8237490572       -1.4800190427
 H          4.7681855525        2.5459978959       -2.4444131840
 H          5.6869610338        2.3839434592        0.4539311738
 H          6.2933500097        1.4799813916       -0.9470870958
 O          4.4795385400       -0.1530008509       -1.1655051358
 C          3.5937378855       -1.2155387264       -1.1461135819
 O          3.7469348789       -2.0268892807       -2.0804757154
 O          1.7361184528       -0.3167793930        1.8381019006
 C          1.6922847830       -2.4664400183       -0.1558059097
 C          0.3263579633       -1.9368697514       -0.5187610068
 C          0.0091723002       -1.7337464566       -1.8590238326
 C         -1.2038933758       -1.1784292402       -2.2203597517
 C         -2.1200949875       -0.8005678216       -1.2536504040
 C         -1.8044536221       -0.9813549280        0.0855654304
 C         -0.5969962698       -1.5653914766        0.4456798737
 H         -0.3595473936       -1.6876437729        1.4904311234
 N         -2.7192086368       -0.5799916510        1.0754391250
 S         -3.3607977409        0.9685154402        0.9599780160
 O         -2.4741916361        1.8674132733        0.2577013691
 O         -3.7142997600        1.3364383008        2.3138650974
 C         -4.8571344698        0.7282495077        0.0230239548
 C         -5.7691033312       -0.2021824191        0.4817478268
 C         -6.9416415083       -0.3976593273       -0.2301850088
 C         -7.1829632009        0.3382666160       -1.3808556352
 C         -6.2595584020        1.2715217075       -1.8262379494
 C         -5.0840833042        1.4711888578       -1.1187984298
 H         -4.3347717860        2.1817888898       -1.4301009119
 H         -6.4487708606        1.8433822555       -2.7205200652
 H         -8.0960553207        0.1838666335       -1.9337772893
 H         -7.6621801184       -1.1223466430        0.1131872732
 H         -5.5449039017       -0.7501838672        1.3815279156
 H         -2.3858673536       -0.7502994231        2.0139914808
 H         -3.0621099323       -0.3539420273       -1.5270781981
 H         -1.4379001645       -1.0322746861       -3.2639966336
 H          0.7361265577       -2.0034509437       -2.6127952716
 H          2.0385151260       -3.1057465823       -0.9784437410
 C          1.7190033655       -3.2703417106        1.1271845084
 C          1.1055385331       -4.6372636732        1.1439963486
 C          2.5944895066       -4.4828504659        1.2109011950
 H          3.0946420555       -4.6921228641        2.1446640966
 H          3.1761072985       -4.7404767175        0.3377914482
 H          0.5814037256       -4.9572835096        2.0314824792
 H          0.6748325232       -4.9995474080        0.2228335473
 H          1.6333086680       -2.6638173951        2.0197885031
