  62
        -98.93834764
 C         -1.9612315796       -0.8813369887       -0.0001843431
 C         -2.2795384111        0.1088645435        0.9557217081
 C         -2.3651460290        1.4921291208        0.4622565065
 C         -2.1208374986        1.7437100178       -0.8353011713
 C         -2.0966145336        3.0760623147       -1.5428251812
 C         -3.2052376347        4.0820701734       -1.2030368233
 C         -4.5645965202        3.4573111598       -0.8560668090
 H         -5.3384668864        3.9345839833       -1.4599327340
 H         -4.5618788747        2.3954768939       -1.1077070265
 C         -4.9433697649        3.6317617589        0.6165686247
 H         -6.0246704968        3.5130854424        0.7175380238
 H         -4.6953032362        4.6499992046        0.9234657688
 C         -4.2885313896        2.6457007414        1.5831791132
 H         -4.7056381944        1.6462430539        1.4333752217
 H         -4.5438192736        2.9504377419        2.6008813677
 C         -2.7591743349        2.5293952861        1.4743645059
 H         -2.3017481948        3.4926938967        1.2610018568
 H         -2.3770214886        2.1710177669        2.4344504590
 H         -2.8825076538        4.7126953566       -0.3758422883
 H         -3.3147081784        4.7339194660       -2.0713452447
 H         -1.1205553171        3.5345006181       -1.3565512757
 H         -2.1365124445        2.8310546832       -2.6070510294
 O         -1.8145186060        0.7570711869       -1.7246342818
 C         -1.7066355901       -0.5661561427       -1.3338817522
 O         -1.4035694610       -1.3520412922       -2.2528710480
 O         -2.4738763872       -0.1503795743        2.1755679329
 C         -1.7955812641       -2.3211141032        0.4499736163
 C         -0.3880051417       -2.7759604566        0.1507034952
 C         -0.0795850037       -4.0114259104       -0.4031916778
 C          1.2341951425       -4.3388645403       -0.6925877258
 C          2.2594254628       -3.4439846146       -0.4502772525
 C          1.9624909271       -2.2130712862        0.1253442257
 C          0.6516104944       -1.9010434611        0.4405052146
 H          0.4338304133       -0.9404295151        0.8861061139
 N          2.9776749264       -1.2821449986        0.4104978428
 S          2.6060961795        0.3604542728        0.2746383823
 O          1.9895042749        0.7981908956        1.5031688774
 O          1.8706857782        0.6185402823       -0.9429736888
 C          4.2507581989        1.0421322564        0.1621821873
 C          4.9828838822        1.2027449918        1.3236153578
 C          6.2744294190        1.6977989333        1.2378808148
 C          6.8098208536        2.0211268822       -0.0002375647
 C          6.0624931684        1.8564010706       -1.1567388830
 C          4.7703617195        1.3604643971       -1.0781589986
 H          4.1479174129        1.2219627132       -1.9479069536
 H          6.4793723844        2.1116456860       -2.1176178840
 H          7.8150153921        2.4065811348       -0.0644852261
 H          6.8573097468        1.8299360995        2.1350015645
 H          4.5199078346        0.9459353482        2.2620435314
 H          3.8495110356       -1.5019533376       -0.0524273545
 H          3.2793286918       -3.6912498877       -0.7025690239
 H          1.4599896696       -5.2988530211       -1.1315813709
 H         -0.8686977346       -4.7117925960       -0.6228866435
 H         -1.9303595899       -2.3053241093        1.5424260789
 C         -2.8631665124       -3.2025011568       -0.1634209741
 C         -3.3531940499       -4.4181201664        0.5636411547
 C         -4.2315198569       -3.2099283056        0.4474153128
 H         -5.0884428531       -3.2524572566       -0.2079224135
 H         -4.3829407363       -2.5985566269        1.3252178046
 H         -3.6115823184       -5.2937040158       -0.0125013540
 H         -2.9157146369       -4.6340964998        1.5265562851
 H         -2.7966724536       -3.2396492696       -1.2451171699
