  62
        -98.93829498
 C         -0.8914002303       -1.1918154697        0.8972338290
 C         -1.3091875602       -0.9276294686       -0.4290956808
 C         -2.0572873699        0.3279049218       -0.6524205198
 C         -2.3165548998        1.1291608610        0.3962528508
 C         -3.0998659595        2.4147220211        0.4079907818
 C         -4.6180360395        2.1864499115        0.3008205316
 C         -5.0448487997        1.1104655924       -0.6949672993
 H         -4.5461039499        0.1718467621       -0.4461246900
 H         -6.1189758398        0.9497730425       -0.5706106995
 C         -4.7911284096        1.4427878036       -2.1633661290
 H         -5.3580416294        2.3373987539       -2.4314993583
 H         -5.1793392198        0.6122575541       -2.7584569397
 C         -3.3290851095        1.6660400436       -2.5535539488
 H         -3.2813544995        1.6923943945       -3.6464985388
 H         -2.9779265394        2.6355550832       -2.2096389180
 C         -2.3683738998        0.5669928830       -2.1086517096
 H         -2.7152477200       -0.3941216166       -2.5052938604
 H         -1.3915590297        0.7428080932       -2.5797572795
 H         -5.0922600893        3.1340727318        0.0406880524
 H         -4.9817640696        1.8858297608        1.2862191313
 H         -2.8905899794        2.9048396703        1.3614390222
 H         -2.7457050793        3.0690476517       -0.3840663376
 O         -1.9080707399        0.8266205799        1.6626554906
 C         -1.1524584801       -0.2977122305        1.9359679697
 O         -0.7771712702       -0.3888938116        3.1218757696
 H          1.5487816799       -0.3961612699        0.4853200897
 C          1.8065173798       -1.2955247895       -0.0551545010
 C          1.0995495895       -2.4635403996        0.2039303380
 C          1.4458337993       -3.6144231691       -0.4899932729
 C          2.4577919393       -3.5798890885       -1.4346183928
 C          3.1261679196       -2.4038084284       -1.7207797419
 C          2.7882632098       -1.2464985889       -1.0283066609
 N          3.4339321501       -0.0238247588       -1.2781835899
 S          2.5167195304        1.3782626414       -1.3216567588
 O          1.2031494203        1.1557302421       -1.8773747290
 O          3.3512814606        2.3242339518       -2.0347461880
 C          2.3955451404        1.8912681800        0.3780130416
 C          3.5451176704        1.9481684692        1.1405268017
 C          3.4489882004        2.3536845781        2.4620303220
 C          2.2143963705        2.6945921279        2.9940534823
 C          1.0705525005        2.6396145588        2.2127587922
 C          1.1609144405        2.2368067799        0.8903092118
 H          0.2934691705        2.1613166306        0.2513528618
 H          0.1075785305        2.8893352887        2.6292100623
 H          2.1383188205        3.0012010871        4.0252678925
 H          4.3344406604        2.3980590574        3.0754847321
 H          4.4846322003        1.6715821593        0.6920474315
 H          4.1068579701       -0.0464545384       -2.0311095699
 H          3.8939918896       -2.3750282580       -2.4791302318
 H          2.7150995592       -4.4797761981       -1.9727651136
 H          0.9085949991       -4.5318570491       -0.3142466537
 C         -0.0048736905       -2.3809698002        1.2301175680
 H          0.4576050795       -2.1213984911        2.1976286483
 C         -0.7433627308       -3.6932346302        1.4443892770
 C         -2.1897638408       -3.7099002502        1.8375367869
 C         -1.7760294309       -4.1959094492        0.4826122665
 H         -1.8192675911       -5.2572863390        0.2855455856
 H         -1.9933994507       -3.5814376885       -0.3763554330
 H         -2.5130852210       -4.4340367508        2.5703486963
 H         -2.7000391006       -2.7600126402        1.9074735476
 H         -0.1132112110       -4.4405197607        1.9167453964
 O         -1.0826232803       -1.6985897778       -1.3972094914
