  62
        -98.93791482
 C         -2.6177066496       -0.9993358261        0.5213210041
 C         -2.8916442461        0.1948312227        1.2392338197
 C         -4.1844037852        0.8378051602        0.9765859800
 C         -5.0301166764        0.2702296407        0.0977548737
 C         -6.3649800567        0.8310633122       -0.2968620180
 C         -6.2448294066        1.7451441195       -1.5239712566
 C         -5.1340165388        2.7890192726       -1.4087845023
 H         -5.1635484810        3.3969340117       -2.3156947522
 H         -4.1669366630        2.2806555396       -1.3954018688
 C         -5.2445316567        3.7001352327       -0.1782071337
 H         -6.2566036388        3.6560014109        0.2257447830
 H         -5.0645302040        4.7312841323       -0.4894193070
 C         -4.2407809394        3.3890357276        0.9337238915
 H         -4.2555604949        4.2182836819        1.6460470293
 H         -3.2333006405        3.3367380549        0.5130714027
 C         -4.4997870355        2.1015107985        1.7263363151
 H         -5.5321414769        2.0901196463        2.0819845186
 H         -3.8363044337        2.1072514820        2.5960134581
 H         -7.2028424376        2.2454056492       -1.6769033885
 H         -6.0416023626        1.1245231989       -2.3997703819
 H         -7.0287008197       -0.0009105337       -0.5382303996
 H         -6.7822776646        1.3843846442        0.5422617348
 O         -4.7382531462       -0.8724142509       -0.5696630422
 C         -3.5285014072       -1.5302645191       -0.3928194920
 O         -3.4166977214       -2.5516207463       -1.0984154579
 H          0.9962039261       -0.2843598010        1.1689234784
 C          0.8840015841       -0.6016060424        0.1407785100
 C         -0.2471756086       -1.3141866007       -0.2299649751
 C         -0.3851547004       -1.7039800517       -1.5578932530
 C          0.5863217447       -1.3773337583       -2.4865944036
 C          1.7110491746       -0.6619792496       -2.1148146401
 C          1.8604937181       -0.2706337097       -0.7913482869
 N          2.9919461613        0.4701703203       -0.4078725075
 S          4.4817703394        0.0019237117       -1.0545278291
 O          4.6234815833        0.6071676081       -2.3552684192
 O          4.6098439522       -1.4371206691       -1.0103133344
 C          5.6119258187        0.7627690056        0.0937419485
 C          5.9285966789        2.0984139537       -0.0667583765
 C          6.7914699260        2.6947036658        0.8389301996
 C          7.3195140118        1.9505797840        1.8836676002
 C          6.9931062830        0.6108005820        2.0309172455
 C          6.1297887934        0.0082927107        1.1294545118
 H          5.8562300784       -1.0324045595        1.1992943259
 H          7.4076733494        0.0341992899        2.8421144693
 H          7.9922457690        2.4168872440        2.5860377564
 H          7.0501494268        3.7352333290        0.7268424037
 H          5.5021362802        2.6343760459       -0.8985307897
 H          3.0456491480        0.5994773119        0.5931592260
 H          2.4768629203       -0.4082912843       -2.8303533961
 H          0.4676310105       -1.6845481195       -3.5151276270
 H         -1.2639783299       -2.2547547850       -1.8560768538
 C         -1.2848172771       -1.6691164360        0.8093776167
 H         -0.9556379886       -1.2395221430        1.7654147863
 C         -1.3839679720       -3.1731194061        0.9738565257
 C         -0.3135816203       -3.8892372570        1.7393307651
 C         -1.6854883311       -3.7444005961        2.3252596378
 H         -2.3183689099       -4.6169314669        2.3847822912
 H         -1.8208287725       -3.0507596247        3.1424065585
 H          0.4831648176       -3.2944985082        2.1600896787
 H          0.0008204389       -4.8627098892        1.3958507381
 H         -1.8114583629       -3.6744670249        0.1158682474
 O         -2.0896489745        0.6935184688        2.0745471448
