  62
        -98.93768907
 C         -1.4098439268       -0.8736910239       -0.5421138964
 C         -2.6141167915       -1.1086705317        0.1707624247
 C         -3.4639964890        0.0579823374        0.4356878614
 C         -3.0573679576        1.2757622568        0.0356915152
 C         -3.7605981412        2.5860782969        0.2742084115
 C         -5.1283090060        2.7616692904       -0.4137350443
 C         -6.3292541470        2.3795758336        0.4603181435
 H         -6.0402578533        2.4637160539        1.5087212192
 H         -7.1278556008        3.1058692367        0.2960838843
 C         -6.9268406818        0.9927665287        0.2042343985
 H         -7.5381548359        1.0296437940       -0.7003015058
 H         -7.5892801839        0.7551678332        1.0393586649
 C         -5.9213658602       -0.1456191218        0.0306186439
 H         -6.4685407610       -1.0900927174        0.0539468646
 H         -5.4598984916       -0.0803449950       -0.9575424597
 C         -4.7969967669       -0.1790387643        1.0842130952
 H         -4.9787732823        0.5564728560        1.8666853685
 H         -4.7474049292       -1.1672729496        1.5458481932
 H         -5.1402286418        2.1987589087       -1.3466620481
 H         -5.2177671334        3.8180376664       -0.6720703430
 H         -3.8741400948        2.7296722841        1.3513690363
 H         -3.0748750218        3.3534248752       -0.0913866706
 O         -1.8885181229        1.4650208057       -0.6303638280
 C         -1.0419769431        0.4107751408       -0.9425892152
 O         -0.0318108831        0.7665228273       -1.5795777080
 H          1.4764416297       -0.4065038171       -0.1041413437
 C          1.4392581685       -1.2730696124        0.5342388947
 C          0.4692578866       -2.2431478075        0.3177240595
 C          0.4211466395       -3.3463362179        1.1612677861
 C          1.3173512670       -3.4692558257        2.2080076895
 C          2.2642083477       -2.4891137085        2.4375812335
 C          2.3214832195       -1.3790739679        1.5992094462
 N          3.2850189264       -0.3879547282        1.8172951884
 S          3.0477814613        1.2308806828        1.4538368193
 O          3.8664554621        1.9265937167        2.4277392493
 O          1.6479930770        1.5805831136        1.4387822947
 C          3.8158722487        1.4087037545       -0.1426897641
 C          5.1972160474        1.3563887778       -0.1777342670
 C          5.8449724279        1.4748903720       -1.3954215118
 C          5.1037787397        1.6429781629       -2.5560195830
 C          3.7203301591        1.6961355054       -2.5031836543
 C          3.0639432946        1.5796160724       -1.2860989817
 H          1.9867187107        1.6099686417       -1.2255639778
 H          3.1378946693        1.8254280362       -3.4016841109
 H          5.6058913393        1.7346008038       -3.5063478735
 H          6.9215151597        1.4361203504       -1.4378415014
 H          5.7331370978        1.2382144861        0.7493288381
 H          3.8309263838       -0.5043658917        2.6578976744
 H          2.9538499448       -2.5741179218        3.2637068783
 H          1.2699290005       -4.3292204079        2.8588215992
 H         -0.3393526803       -4.0972029649        1.0054742203
 C         -0.5349207119       -2.0897536975       -0.8010268402
 H         -1.2181347134       -2.9489838910       -0.7498156473
 C          0.1456725824       -2.1015711717       -2.1541029759
 C          0.5886980785       -3.4129479248       -2.7280563626
 C         -0.5737138571       -2.6845828973       -3.3317151480
 H         -0.4482198782       -2.2134192821       -4.2948255751
 H         -1.5655641998       -3.0797823551       -3.1661760253
 H          0.3845143927       -4.3045741743       -2.1548317725
 H          1.5166469260       -3.4454787632       -3.2775438846
 H          0.7697017020       -1.2367913297       -2.3339205132
 O         -2.9655214274       -2.2527706186        0.5675454272
