  62
        -98.93852056
 C         -2.3443400830       -1.2252915736        0.2444437494
 C         -2.3953283518        0.0146115597       -0.4333438241
 C         -3.4117160889        0.9779091621        0.0320011573
 C         -4.2179055863        0.6519177473        1.0589896873
 C         -5.3062976699        1.4358985472        1.7622502513
 C         -5.8947532310        2.6962394490        1.1331417559
 C         -6.6948141073        2.4601583046       -0.1472874808
 H         -7.6095170177        1.9196716430        0.1086715132
 H         -6.9849680167        3.4323948038       -0.5516048109
 C         -5.9787763084        1.6637909588       -1.2352540617
 H         -5.7810194771        0.6508147667       -0.8789737440
 H         -6.6576234172        1.5780777746       -2.0880621903
 C         -4.6732073496        2.2747528042       -1.7410091039
 H         -4.8473528939        3.3041850398       -2.0600830958
 H         -4.3599882813        1.7016825164       -2.6178644016
 C         -3.5037929123        2.2623488433       -0.7404354754
 H         -3.5500655907        3.1130973865       -0.0645650104
 H         -2.5716020497        2.3481383905       -1.3069401906
 H         -5.1148437667        3.4329072663        0.9638607570
 H         -6.5767513335        3.1227347461        1.8738182353
 H         -6.1129273875        0.7197373703        1.9483757852
 H         -4.8956721155        1.6990179721        2.7433944133
 O         -4.1113075741       -0.5486045294        1.7005126911
 C         -3.1887060234       -1.5038129480        1.3205440297
 O         -3.2201468700       -2.5464223581        2.0038164856
 O         -1.6362643710        0.3218726905       -1.3908548241
 C         -1.3428442442       -2.3057391095       -0.1346428391
 C          0.0361537375       -1.8293589141        0.2516322472
 C          0.4693567067       -1.9957137531        1.5642274237
 C          1.7014187318       -1.5155221733        1.9660753077
 C          2.5230664980       -0.8504828635        1.0719272976
 C          2.0909044097       -0.6618210572       -0.2332250851
 C          0.8624406035       -1.1659520066       -0.6412579530
 H          0.5334761999       -1.0009097913       -1.6547711177
 N          2.9099837255        0.0227054995       -1.1469305687
 S          3.6334309174        1.4551988499       -0.6565726690
 O          2.8620187821        2.1304271153        0.3613939828
 O          3.8760102169        2.1932990157       -1.8771814488
 C          5.1973186504        0.9235823707        0.0118038862
 C          5.5809049586        1.3277197918        1.2754612933
 C          6.8071394245        0.9105251540        1.7697798647
 C          7.6243847676        0.1017526223        0.9952015838
 C          7.2259471208       -0.2931453560       -0.2733072214
 C          6.0019275286        0.1211225343       -0.7733934017
 H          5.6567640375       -0.1613415596       -1.7538302684
 H          7.8641445035       -0.9221326208       -0.8728183364
 H          8.5772910682       -0.2226035275        1.3825695416
 H          7.1182452684        1.2170699951        2.7555813567
 H          4.9100288197        1.9521157615        1.8441985020
 H          2.4866847875        0.1326111426       -2.0575406681
 H          3.4798401169       -0.4631750936        1.3817479403
 H          2.0261290992       -1.6565791392        2.9858432046
 H         -0.1822691341       -2.4947849716        2.2682361807
 H         -1.5890078029       -3.1724457334        0.4929667686
 C         -1.4676092752       -2.7091459133       -1.5891161874
 C         -0.8212389204       -3.9784749961       -2.0537409466
 C         -2.3135317897       -3.8918464291       -1.9487288003
 H         -2.8945365951       -3.8513701076       -2.8579730759
 H         -2.8019455930       -4.4202400264       -1.1428996842
 H         -0.3755885971       -4.0014145348       -3.0364154377
 H         -0.2948655873       -4.5662020423       -1.3170741180
 H         -1.4838148615       -1.8681426214       -2.2707286674
