  62
        -98.94609974
 C         -1.8925654999       -1.2758686208        0.3271840002
 C         -1.6668279099        0.0757593191       -0.0245275905
 C         -2.7792692199        0.9968928892        0.2395889391
 C         -3.9073533299        0.5374021194        0.8110787894
 C         -5.1175865799        1.3577495496        1.1664102391
 C         -6.0912923699        1.5718767490       -0.0005134210
 C         -5.6100479600        2.5435806785       -1.0787679314
 H         -6.4686705900        2.7666193982       -1.7152299515
 H         -5.2998928700        3.4787878087       -0.6116634219
 C         -4.4730827400        2.0023677781       -1.9568981712
 H         -4.4157346000        0.9164585381       -1.8510868807
 H         -4.6937102401        2.2088180376       -3.0066991513
 C         -3.0991900700        2.6019694083       -1.6570298416
 H         -3.1069599701        3.6693072981       -1.8891399421
 H         -2.3660701200        2.1214874980       -2.3103584614
 C         -2.6323396599        2.4202569890       -0.2066978115
 H         -1.5710070499        2.6755217590       -0.1571045617
 H         -3.1864986499        3.0870621493        0.4534658182
 H         -6.3109410199        0.6029841088       -0.4549306405
 H         -7.0221412799        1.9603601892        0.4189967689
 H         -5.6409719798        0.8134724199        1.9553956294
 H         -4.8026726598        2.3243056598        1.5605365186
 O         -4.0721773398       -0.7658713904        1.1628740900
 C         -3.0835470598       -1.7040367305        0.9141138104
 O         -3.3746524698       -2.8649381904        1.2664730210
 H          1.7459565301       -1.8842680513       -0.9245163197
 C          1.6629901201       -1.7632900408        0.1420697602
 C          0.4494587902       -1.9359292305        0.7879010904
 C          0.3971006803       -1.7579856299        2.1690508603
 C          1.5273158003       -1.4102405795        2.8820808801
 C          2.7341532802       -1.2200460998        2.2304363699
 C          2.7977183502       -1.3957121405        0.8544982600
 N          4.0122451001       -1.2236431208        0.1606044498
 S          4.0936926201       -0.0572419313       -1.0412296707
 O          3.1586942100       -0.3663255118       -2.0899492905
 O          5.4899171400       -0.0205787315       -1.4211853308
 C          3.6684892101        1.4628562291       -0.2090972014
 C          2.3443151601        1.7553631692        0.0491329385
 C          2.0491440801        2.9026203495        0.7707012680
 C          3.0677008501        3.7295660597        1.2172114775
 C          4.3922472001        3.4203308696        0.9462467376
 C          4.6972901501        2.2735131393        0.2322987281
 H          5.7114420401        1.9934408992       -0.0033691318
 H          5.1842541001        4.0654037898        1.2912494873
 H          2.8269015601        4.6193393800        1.7775786671
 H          1.0167553601        3.1354206096        0.9796087879
 H          1.5602212001        1.1065398890       -0.3089920311
 H          4.8119107102       -1.1186231405        0.7702698397
 H          3.6188069803       -0.9415701795        2.7830983897
 H          1.4690447703       -1.2790000990        3.9519658500
 H         -0.5492718197       -1.8983919496        2.6742807504
 C         -0.8184853098       -2.3165033809        0.0634803806
 H         -1.1911787998       -3.2548482607        0.4995112111
 C         -0.6338308399       -2.5143130216       -1.4262529093
 C         -0.1149104599       -3.8187199218       -1.9491901687
 C         -1.5523166199       -3.4472061719       -2.1539587788
 H         -1.8806577200       -3.1784261324       -3.1469131589
 H         -2.3027601999       -3.9602243117       -1.5696646185
 H          0.5473970900       -3.8037116322       -2.8017968388
 H          0.1112141901       -4.5910346615       -1.2294700484
 H         -0.3362119100       -1.6070364218       -1.9403910998
 O         -0.5940324399        0.4971006488       -0.5287440507
