  62
        -98.93356507
 C          2.1283869310        1.3117561050        0.4991157443
 C          2.0381677196        0.3127554296       -0.5024034025
 C          2.8431706368       -0.9015432832       -0.2782275737
 C          3.5632642211       -1.0191322756        0.8509888051
 C          4.4914676558       -2.1527812152        1.1829617207
 C          5.8081252278       -2.0057784415        0.3936666094
 C          6.0549717276       -3.1121152814       -0.6319995712
 H          6.8869819613       -2.7929312452       -1.2630915771
 H          6.3665119234       -4.0183148112       -0.1084163266
 C          4.8630840550       -3.4730910299       -1.5238626270
 H          5.2548636129       -4.0627422743       -2.3553485333
 H          4.1780142822       -4.1233940204       -0.9775734698
 C          4.0669689577       -2.2907560834       -2.0911636064
 H          3.7829305778       -2.5335205017       -3.1170620143
 H          4.6873037164       -1.3953608913       -2.1363752520
 C          2.7653380011       -1.9713991672       -1.3318634549
 H          2.0216331656       -1.6052246310       -2.0462970982
 H          2.3630020146       -2.8876083119       -0.8894719832
 H          5.7986731708       -1.0368518314       -0.1098495750
 H          6.6486855840       -1.9904493132        1.0889885614
 H          4.6836199752       -2.1115765753        2.2554218625
 H          4.0089903556       -3.1002425154        0.9522045881
 O          3.5824320362       -0.0608234063        1.8145081248
 C          2.8584747590        1.1120018965        1.6721690475
 O          2.9375669326        1.8822206447        2.6508273322
 H         -0.3169527167        1.0749821275        1.7844542969
 C         -0.8037694566        1.4480865046        0.8898402720
 C         -0.0924614173        2.2827196069        0.0356371468
 C         -0.7203744844        2.7445313237       -1.1124791667
 C         -2.0211653417        2.3665393446       -1.3972615145
 C         -2.7216526017        1.5291689125       -0.5484503706
 C         -2.1028230910        1.0627662203        0.6040775122
 N         -2.8117013471        0.2062609360        1.4759112924
 S         -3.2228709571       -1.3033668412        0.8506330918
 O         -3.4234175164       -2.1469475814        2.0101487896
 O         -2.2515471789       -1.7642058246       -0.1151491083
 C         -4.7911148050       -1.0195291310        0.0587969602
 C         -5.8572768716       -0.6277247683        0.8447583925
 C         -7.0837766581       -0.3998279617        0.2414488482
 C         -7.2224408110       -0.5690678672       -1.1283378445
 C         -6.1428169152       -0.9664980105       -1.9024401190
 C         -4.9126209740       -1.1952093966       -1.3055678435
 H         -4.0424294166       -1.4986535796       -1.8656626472
 H         -6.2522323640       -1.0978887078       -2.9669515609
 H         -8.1779067318       -0.3906650666       -1.5958510111
 H         -7.9258520264       -0.0915712523        0.8397946711
 H         -5.7058820021       -0.5145418401        1.9052188824
 H         -2.3383221505        0.0714392765        2.3590276126
 H         -3.7334282402        1.2314301249       -0.7704746716
 H         -2.4948108272        2.7253215414       -2.2982697408
 H         -0.1804362005        3.3747101300       -1.7997486797
 C          1.3335617219        2.6049698580        0.4092628586
 H          1.3278751040        3.0025816451        1.4379535995
 C          1.9661550768        3.6783826508       -0.4625971225
 C          3.4545533293        3.7555959031       -0.6237098151
 C          2.5930949472        3.3789790476       -1.7895902365
 H          2.4699106039        4.0989626494       -2.5855268455
 H          2.5924185722        2.3541021512       -2.1239808272
 H          3.9220648825        4.7287706123       -0.6184164431
 H          4.0473493275        2.9840872047       -0.1532714651
 H          1.4445298653        4.6263513072       -0.3732436823
 O          1.3297703502        0.4174889896       -1.5356816621
