  62
        -98.93889298
 C         -2.7288201553       -0.1162759062       -0.1892744700
 C         -2.2294091242       -0.8517107213        0.9152189875
 C         -1.8645471358       -2.2525540516        0.6402106242
 C         -2.0210469426       -2.7534508870       -0.5968568300
 C         -1.6900506398       -4.1592020271       -1.0072043450
 C         -0.2599931046       -4.2793497677       -1.5486243989
 C          0.8036553459       -3.6422024204       -0.6540023545
 H          1.7745147042       -3.8473637419       -1.1115680452
 H          0.6782068781       -2.5572946001       -0.6548794588
 C          0.8100203568       -4.1484024076        0.7948242168
 H          1.8455894028       -4.3162268508        1.0988060057
 H          0.2922401303       -5.1070522192        0.8575638643
 C          0.2038564981       -3.1772979170        1.8106984947
 H          0.6314467953       -2.1802818786        1.6660404121
 H          0.4891594725       -3.5107752095        2.8129076608
 C         -1.3258618651       -3.0578937448        1.7886482079
 H         -1.7735155379       -4.0545157868        1.8070757063
 H         -1.6305573671       -2.5260464506        2.6952003179
 H         -0.0349589336       -5.3392520440       -1.6854969640
 H         -0.2171392691       -3.7920315212       -2.5252779782
 H         -1.8200762817       -4.8171489113       -0.1497646625
 H         -2.3899216909       -4.4564510258       -1.7906355947
 O         -2.5010735979       -2.0181863623       -1.6329028768
 C         -2.8333797007       -0.6864323139       -1.4600684418
 O         -3.2329751182       -0.1212627383       -2.4996786778
 H         -0.5117006513        0.9980401037        0.5713272239
 C         -0.6477391534        1.8665269601       -0.0546799696
 C         -1.9196987400        2.2128579336       -0.4896751309
 C         -2.0658591076        3.3530922528       -1.2698892141
 C         -0.9660012424        4.1293857946       -1.5951881309
 C          0.3023795431        3.7627462281       -1.1853876508
 C          0.4616492958        2.6086156458       -0.4243520658
 N          1.7521636373        2.1585968652       -0.0819840433
 S          2.0071392090        0.5736700849        0.3898108245
 O          1.3144819690       -0.2826508370       -0.5376154377
 O          1.7384502124        0.3872249214        1.7999298526
 C          3.7654593832        0.4724722638        0.1134057975
 C          4.6357707627        0.6820136741        1.1658496896
 C          6.0007006520        0.6404747764        0.9276184787
 C          6.4701153625        0.3923572907       -0.3532370452
 C          5.5846450677        0.1806702912       -1.3997180749
 C          4.2192273791        0.2217207984       -1.1671931310
 H          3.4924078803        0.0565340683       -1.9458198486
 H          5.9524909288       -0.0156915741       -2.3939263296
 H          7.5324098016        0.3609287984       -0.5370763591
 H          6.6910284093        0.8010065921        1.7400478827
 H          4.2255385407        0.8597612567        2.1469905772
 H          2.3516844066        2.8317223161        0.3692204614
 H          1.1649819806        4.3496110500       -1.4578019123
 H         -1.0970587082        5.0194276421       -2.1915709764
 H         -3.0466105326        3.6223612783       -1.6339518929
 C         -3.1051282993        1.3557224789       -0.1198444252
 H         -3.8693563582        1.5020630606       -0.9011043233
 C         -3.7296986910        1.7612791820        1.2078167193
 C         -2.9943273644        2.5426005940        2.2504066242
 C         -4.0959921658        3.1921055670        1.4717190312
 H         -5.0298904006        3.3980102860        1.9722181748
 H         -3.8169785105        3.9265033671        0.7320344109
 H         -1.9753534365        2.8293922384        2.0395452324
 H         -3.1615995190        2.2799063038        3.2835881933
 H         -4.4200337419        1.0075715702        1.5722226005
 O         -2.1054341180       -0.3933674500        2.0805306504
