  62
        -98.93895070
 C          0.7435772574        1.1599277037        0.8002792272
 C          1.1661528508        0.7251964738       -0.4781409134
 C          2.1960744600       -0.3342740626       -0.5031154250
 C          2.5761005010       -0.9168408293        0.6475041352
 C          3.5862189320       -2.0091787211        0.9314461004
 C          4.5655911883       -2.4623469296       -0.1480821566
 C          5.6309888291       -1.4288482223       -0.5153592743
 H          6.3266147374       -1.3367583421        0.3226946393
 H          6.1933687533       -1.8049187275       -1.3726699615
 C          5.1129740686       -0.0287983946       -0.8358471746
 H          4.6133758482        0.3873305381        0.0414549533
 H          5.9774004616        0.6076179419       -1.0440030160
 C          4.1707294302        0.0616958085       -2.0343204245
 H          3.9939537277        1.1220408035       -2.2348818172
 H          4.6542910583       -0.3670779333       -2.9141910175
 C          2.8015187725       -0.6139033080       -1.8485635890
 H          2.8654458128       -1.6819591504       -2.0346828948
 H          2.1118214685       -0.1910777665       -2.5846046633
 H          5.0832413123       -3.3399202280        0.2486307523
 H          4.0286647284       -2.7877902714       -1.0338296130
 H          3.0061518213       -2.8768508326        1.2619998769
 H          4.1524704644       -1.6714081784        1.8056781461
 O          1.9982071288       -0.5848756590        1.8413024867
 C          1.1136396089        0.4714926421        1.9558223104
 O          0.7257553058        0.6888490511        3.1220857302
 O          0.7323885340        1.1964682889       -1.5589292042
 C         -0.1855935993        2.3482404001        0.9792758902
 C         -1.3314199292        2.2588443027        0.0041082865
 C         -1.5436060569        3.1633216654       -1.0276510419
 C         -2.6015057357        2.9867698291       -1.9014751162
 C         -3.4605531127        1.9115585564       -1.7692950681
 C         -3.2617026172        1.0065779637       -0.7318579344
 C         -2.2101345295        1.1925311585        0.1501892662
 H         -2.0650856733        0.4966531637        0.9647828229
 N         -4.1243785997       -0.0833717913       -0.5670533232
 S         -3.7522131374       -1.3950828499        0.3748396902
 O         -4.7008173552       -2.4064291333       -0.0436935930
 O         -3.8015281496       -1.0381494697        1.7716595780
 C         -2.1080838877       -1.9416972152       -0.0530632335
 C         -1.6785489256       -1.9065114394       -1.3640358706
 C         -0.4329314028       -2.4279551973       -1.6735345603
 C          0.3520399300       -2.9849309316       -0.6766601657
 C         -0.0909948823       -3.0081931898        0.6359685081
 C         -1.3300091807       -2.4780872097        0.9527976283
 H         -1.7057685189       -2.4646262550        1.9640891049
 H          0.5202084764       -3.4328088099        1.4167059961
 H          1.3138111866       -3.4060230907       -0.9218719540
 H         -0.0790366559       -2.3975688424       -2.6912563516
 H         -2.3062190027       -1.4735457215       -2.1256550814
 H         -4.7439111046       -0.2922762764       -1.3340644422
 H         -4.2776819037        1.7684169512       -2.4593104827
 H         -2.7527697442        3.6906186290       -2.7057184138
 H         -0.8636812448        3.9875052891       -1.1657016725
 H         -0.6009863366        2.2357548917        1.9947061757
 C          0.5288963560        3.6920160745        0.9444718588
 C          1.9311062718        3.8286274446        1.4565256019
 C          1.6491636973        3.9846444141       -0.0060134881
 H          1.7105532498        4.9740698612       -0.4350902352
 H          1.9559244732        3.1979085482       -0.6765126307
 H          2.1848657545        4.7063224451        2.0318319848
 H          2.4291971903        2.9298268502        1.7910363875
 H         -0.1457800242        4.5120516060        1.1710953538
