  62
        -98.93399396
 C          2.2223151696        0.9626139924        0.4204554630
 C          2.3227760595       -0.0354794606       -0.5779565441
 C          3.2725001683       -1.1336203755       -0.3083683354
 C          3.9249586014       -1.1672883420        0.8654933986
 C          4.9678708083       -2.1563982208        1.3063778392
 C          6.3787546461       -1.6305742575        0.9919785532
 C          6.8907865715       -1.9589933168       -0.4100128504
 H          7.8314977308       -1.4205247702       -0.5460511055
 H          7.1132893892       -3.0264907194       -0.4688473606
 C          5.9447407205       -1.5930974220       -1.5569166202
 H          5.5103445288       -0.6082072006       -1.3761958661
 H          6.5393134963       -1.5203360809       -2.4696066915
 C          4.8291024699       -2.6265791738       -1.7731884932
 H          5.0715141135       -3.5318209526       -1.2166104283
 H          4.8000476478       -2.9100815147       -2.8271867026
 C          3.4137624139       -2.1563982106       -1.4025328614
 H          2.9420504171       -1.6944420511       -2.2754854135
 H          2.8035026100       -3.0285425307       -1.1454307681
 H          6.3727534375       -0.5471905342        1.1382377504
 H          7.0792381501       -2.0525420609        1.7155000226
 H          4.8663833822       -2.2553432180        2.3892493806
 H          4.7981201879       -3.1260997027        0.8479255891
 O          3.7401790043       -0.2254555123        1.8324086930
 C          2.8958505329        0.8518745826        1.6386166996
 O          2.8181892198        1.6247948334        2.6154973069
 H         -0.2751514439        0.3727188027        1.3934003693
 C         -0.7366089476        0.7736149388        0.4975495492
 C         -0.0460704850        1.7227347893       -0.2475608373
 C         -0.6493272112        2.2321014593       -1.3890287880
 C         -1.9036953681        1.7910549176       -1.7740394294
 C         -2.5809279198        0.8387782418       -1.0358673928
 C         -1.9880374444        0.3235530425        0.1096475270
 N         -2.6686551536       -0.6553001189        0.8608091714
 S         -4.1953744813       -0.2496838929        1.4375549106
 O         -4.3114811780        1.1731925055        1.6627462592
 O         -4.4054252209       -1.1009701397        2.5886734247
 C         -5.2979216804       -0.7526511984        0.1336125930
 C         -6.1321788146        0.1754818572       -0.4581046995
 C         -6.9867554697       -0.2398761323       -1.4675029680
 C         -6.9921372353       -1.5684420708       -1.8641323174
 C         -6.1497886340       -2.4885365903       -1.2575826004
 C         -5.2938240653       -2.0802331309       -0.2472037469
 H         -4.6268990075       -2.7628644678        0.2525441517
 H         -6.1569221945       -3.5207930714       -1.5686629753
 H         -7.6569302240       -1.8891666065       -2.6505862460
 H         -7.6425295385        0.4735768267       -1.9400690219
 H         -6.0884560318        1.1984186385       -0.1199885370
 H         -2.1115168273       -1.0442794832        1.6081782300
 H         -3.5534356704        0.4867941375       -1.3388731468
 H         -2.3575875508        2.1910380289       -2.6678582477
 H         -0.1299550532        2.9597749013       -1.9902984764
 C          1.3062613697        2.1631123492        0.2588152818
 H          1.1631625862        2.5479163253        1.2830954085
 C          1.9122476192        3.3030738796       -0.5469067765
 C          3.3975031144        3.4920190603       -0.6210431784
 C          2.6333983383        3.0766841939       -1.8403106023
 H          2.5036223770        3.8001740738       -2.6318787918
 H          2.7258576358        2.0603532110       -2.1878383462
 H          4.0206068297        2.7585737221       -0.1295397159
 H          3.7887521101        4.4972057637       -0.5724060927
 H          1.3197536816        4.2096847320       -0.4701072340
 O          1.6658583135       -0.0214686427       -1.6500195178
