  62
        -98.93104974
 C          2.3926352288        1.2510084799       -0.1759122103
 C          2.3434656788       -0.0733180501        0.3187326999
 C          3.6422228688       -0.7115669102        0.6166645196
 C          4.7820018288       -0.0172803203        0.4466712693
 C          6.2270767188       -0.3909899704        0.7036611790
 C          6.6350995087       -1.8488418204        0.9001265890
 C          6.4739586884       -2.7317163806       -0.3366668308
 H          7.2053121682       -2.4187355907       -1.0860019111
 H          6.7069568283       -3.7605394606       -0.0537761008
 C          5.0971783882       -2.6988031805       -0.9957717205
 H          4.8992483182       -1.6976927405       -1.3845180006
 H          5.1204087179       -3.3763580306       -1.8536610504
 C          3.9331364784       -3.1226725603       -0.1016530202
 H          3.0469511482       -3.2143101403       -0.7361608799
 H          4.1378928384       -4.1054313003        0.3275061199
 C          3.5842333888       -2.1510333901        1.0399397898
 H          2.5492534988       -2.3403382800        1.3403914301
 H          4.2129663890       -2.3206459601        1.9108061297
 H          6.1049313889       -2.2786085103        1.7448472692
 H          7.6964203088       -1.8407557005        1.1628835388
 H          6.7940188587        0.0292762094       -0.1330589212
 H          6.5264263191        0.1744973597        1.5930272388
 O          4.7734819088        1.2810536496        0.0227990191
 C          3.6011038988        1.9389387097       -0.2999011107
 O          3.7627845088        3.1188841697       -0.6690601208
 H         -1.4159485714        0.9634864702       -0.8109057393
 C         -1.1824620211        1.2855004202        0.1890044806
 C          0.0625097590        1.8165149902        0.4867696902
 C          0.3302110594        2.1991837403        1.7988181001
 C         -0.6171204104        2.0318608505        2.7892013404
 C         -1.8539139105        1.4880679806        2.4908962708
 C         -2.1378196309        1.1168976805        1.1817999209
 N         -3.4135796510        0.6206589505        0.8572926112
 S         -3.6486440614       -0.5092331496       -0.3709365086
 O         -2.9449332715       -1.7396715996       -0.0853553686
 O         -3.3768062317        0.1091636903       -1.6437193587
 C         -5.4073179814       -0.7570605794       -0.1978471481
 C         -6.2576423014        0.2143611606       -0.6915250880
 C         -7.6250817214        0.0466868808       -0.5439674276
 C         -8.1178450114       -1.0837827191        0.0912543626
 C         -7.2529277014       -2.0513934591        0.5792229325
 C         -5.8836104514       -1.8885632893        0.4360856321
 H         -5.1740404014       -2.6180310593        0.7925504921
 H         -7.6388101113       -2.9307351590        1.0693537227
 H         -9.1827259414       -1.2126288690        0.2041053529
 H         -8.3008931914        0.7955165808       -0.9244662676
 H         -5.8293381415        1.0707663605       -1.1854404682
 H         -3.9373056908        0.3487199807        1.6787355714
 H         -2.5929298403        1.3516201707        3.2659887810
 H         -0.3909912801        2.3222183206        3.8044301203
 H          1.3011564995        2.6160501402        2.0323388998
 C          1.1368649888        2.0160196199       -0.5544813101
 H          1.4333922989        3.0784298299       -0.5282396103
 C          0.6522672184        1.7360051898       -1.9695375199
 C          1.5978189081        1.3093316196       -3.0511778401
 C          0.5771950981        0.3471347998       -2.5258050397
 H         -0.2680384321        0.0909493498       -3.1488633495
 H          0.9044949382       -0.4621048902       -1.8918803897
 H          1.4607421779        1.7179504295       -4.0410113101
 H          2.6327255581        1.1556207495       -2.7812319203
 H         -0.1380901316        2.4181222999       -2.2692512298
 O          1.2750584888       -0.7088289900        0.5175666402
