  62
        -98.94325386
 C          2.6038467451        0.2728013823       -0.1917894346
 C          2.1266493010        1.2441327685       -1.1035981380
 C          1.6383178754        2.4980970032       -0.5192099823
 C          1.6581479200        2.6510545894        0.8173068558
 C          1.1967504336        3.8801596472        1.5457913667
 C         -0.2747810496        3.7816749686        1.9679243256
 C         -1.2188520872        3.3462290475        0.8471709029
 H         -1.0087647461        2.3036620320        0.5963830369
 H         -2.2321462606        3.3735379706        1.2561613486
 C         -1.1564455850        4.2122379782       -0.4188790855
 H         -2.1765724002        4.3988194966       -0.7615236994
 H         -0.7120917866        5.1802198621       -0.1836678710
 C         -0.4024116934        3.5794344070       -1.5903757890
 H         -0.7526789379        2.5539329081       -1.7366115119
 H         -0.6438347030        4.1432457011       -2.4955426677
 C          1.1262717055        3.5491333405       -1.4634789139
 H          1.4929889296        4.5377260608       -1.1801388792
 H          1.5394781728        3.2970440125       -2.4446086682
 H         -0.3560608427        3.0511745772        2.7764765154
 H         -0.5856210978        4.7550315000        2.3538347785
 H          1.8121402188        3.9948857036        2.4401867560
 H          1.3427500026        4.7472512529        0.9038222705
 O          2.0973239416        1.6864466596        1.6646732195
 C          2.5349578943        0.4598333958        1.1891495198
 O          2.8482155069       -0.3513830655        2.0817788339
 O          2.1122201740        1.0690991550       -2.3540193139
 C          3.0644175045       -1.0711925473       -0.7373940633
 C          2.0086182648       -2.0838425296       -0.3682497761
 C          2.2300828649       -3.2102310129        0.4115736161
 C          1.1693813766       -4.0125683903        0.8012865643
 C         -0.1289209711       -3.7050967454        0.4352111159
 C         -0.3523355331       -2.5969816327       -0.3688020685
 C          0.7088231357       -1.8109979420       -0.7771894557
 H          0.5227677927       -0.9366608766       -1.3887760848
 N         -1.6898581974       -2.2155701113       -0.6882457399
 S         -2.2393830141       -1.1981167578        0.5587274133
 O         -1.4003322468       -0.0228581745        0.6475219069
 O         -2.3532302703       -1.9975269755        1.7521045912
 C         -3.8607779770       -0.7505098956       -0.0330264789
 C         -4.0697154996        0.5086893368       -0.5609902772
 C         -5.3261560517        0.8295126495       -1.0511102015
 C         -6.3437458159       -0.1113096783       -1.0088484220
 C         -6.1176480885       -1.3720658214       -0.4760516246
 C         -4.8646463406       -1.6987154218        0.0169169294
 H         -4.6422455043       -2.6614824347        0.4457856654
 H         -6.9123364894       -2.0996973616       -0.4437554377
 H         -7.3197704175        0.1407493344       -1.3923877447
 H         -5.5037430334        1.8096094825       -1.4636809809
 H         -3.2503151649        1.2103494101       -0.5676994062
 H         -1.6993703745       -1.6613116667       -1.5375536230
 H         -0.9667302422       -4.2912724004        0.7751151595
 H          1.3564331061       -4.8770036838        1.4202796167
 H          3.2297770579       -3.4462481297        0.7380665846
 H          3.0643315363       -0.9569309232       -1.8313572259
 C          4.4596512661       -1.4291177370       -0.2801026158
 C          5.2670125565       -2.4171923761       -1.0666697213
 C          5.6323756226       -0.9643650356       -1.0888369071
 H          6.5224936466       -0.6464214013       -0.5673777603
 H          5.4258055080       -0.3976579429       -1.9849731107
 H          5.9101074743       -3.0991119122       -0.5316730583
 H          4.8138431332       -2.8394403658       -1.9507326708
 H          4.5629543133       -1.4240379205        0.7984471918
