  62
        -98.94532635
 C          2.1281414132        0.9052438744        0.0494489899
 C          2.8564589620        0.2591852344        1.0759957524
 C          3.5509005195       -0.9739380945        0.6891478317
 C          3.4215269168       -1.4468887168       -0.5639971753
 C          4.0369068685       -2.7111513200       -1.0999769428
 C          5.4860569694       -2.5467978132       -1.5783293277
 C          6.5225799020       -2.3811154880       -0.4663195549
 H          6.4071514550       -3.1873718618        0.2587315972
 H          7.5060821142       -2.4948272646       -0.9263745067
 C          6.4678125427       -1.0262793167        0.2533064984
 H          7.4791724185       -0.6263075886        0.3538425792
 H          5.9009961431       -0.3152956002       -0.3521395813
 C          5.8600926464       -1.0767807755        1.6550848463
 H          5.8384138998       -0.0601059447        2.0555767495
 H          6.4928054837       -1.6824614443        2.3075154780
 C          4.4320380731       -1.6359803685        1.7053307798
 H          4.4443957088       -2.7152564153        1.5538275972
 H          4.0154433824       -1.4258670508        2.6936282003
 H          5.5348015892       -1.6897583083       -2.2539435866
 H          5.7411469697       -3.4391264489       -2.1545556193
 H          3.4243659778       -3.0164862701       -1.9512789923
 H          3.9888646316       -3.4927919354       -0.3410066054
 O          2.6733448535       -0.8200328955       -1.5109409459
 C          2.0242398224        0.3762530897       -1.2374983190
 O          1.4000647583        0.8532590994       -2.2034757253
 O          2.9134584069        0.6858869409        2.2612780607
 C          1.3892257747        2.1928930970        0.3683498075
 C         -0.0889628618        1.9959557275        0.1374797646
 C         -0.8723606791        2.8524461189       -0.6235742687
 C         -2.2168683158        2.5845096134       -0.8178155392
 C         -2.8092414815        1.4696979143       -0.2544894559
 C         -2.0365115628        0.6108426248        0.5166595942
 C         -0.6921579412        0.8825202066        0.7107688457
 H         -0.0895886596        0.2072684895        1.3070120826
 N         -2.6326632474       -0.5219974896        1.1043277326
 S         -3.4333409209       -1.5858491409        0.0766336739
 O         -3.3994249758       -2.8629021926        0.7571854073
 O         -2.8827005549       -1.5536932494       -1.2587389009
 C         -5.1078894826       -0.9806942890        0.0664366674
 C         -5.7639742756       -0.8592524014        1.2758909808
 C         -7.0698247635       -0.3958556394        1.2843783063
 C         -7.6946500613       -0.0667731448        0.0905042307
 C         -7.0232000102       -0.1974220700       -1.1154709840
 C         -5.7160914434       -0.6593504085       -1.1310545442
 H         -5.1511583123       -0.7713885491       -2.0428864429
 H         -7.5101503811        0.0587100274       -2.0426712223
 H         -8.7111591836        0.2936094920        0.0997408753
 H         -7.5952426641       -0.2927670527        2.2200450681
 H         -5.2428624742       -1.1290933546        2.1791527630
 H         -2.0028898141       -1.0354212076        1.7049782788
 H         -3.8537690532        1.2543494544       -0.4100961629
 H         -2.8115399504        3.2538555209       -1.4204563994
 H         -0.4284202531        3.7229861610       -1.0773281595
 H          1.5487287002        2.3620819225        1.4438340615
 C          1.9804198033        3.3547398614       -0.4008630130
 C          1.8821277267        4.7470402739        0.1451507899
 C          3.2004023513        4.0350348195        0.1415000039
 H          3.9620462218        4.3580377853       -0.5522555710
 H          3.5920439029        3.6746403394        1.0816360472
 H          1.7404911941        5.5632926409       -0.5468300040
 H          1.3798955027        4.8775809935        1.0915783846
 H          1.9199167367        3.2166144711       -1.4745673670
