  62
        -98.93989324
 C         -2.6361436949       -0.2150279265        0.5638924006
 C         -2.1816080958        0.2358218418       -0.7015791749
 C         -2.0115509744        1.6903559074       -0.8432593633
 C         -2.2634284309        2.4936427270        0.2046852780
 C         -2.1310957520        3.9886693995        0.1970934285
 C         -0.7412111937        4.4435178824        0.6598133907
 C          0.4170277085        3.7343919571       -0.0428054746
 H          1.3410613785        4.1915677751        0.3193092018
 H          0.4447628615        2.6848507434        0.2588533984
 C          0.3817570460        3.8121907217       -1.5750898906
 H         -0.2621364373        4.6339937367       -1.8929976341
 H          1.3899399029        4.0291755145       -1.9345930569
 C         -0.0634849724        2.5205027126       -2.2649136098
 H          0.4943117699        1.6733497643       -1.8537391983
 H          0.1944119865        2.5940450608       -3.3254823909
 C         -1.5623244210        2.2024797673       -2.1820849063
 H         -1.7695247125        1.3987553107       -2.8950602202
 H         -2.1420630143        3.0813568326       -2.4748948467
 H         -0.6544553122        4.2564045774        1.7326114351
 H         -0.6626102400        5.5200549355        0.4944196074
 H         -2.3271828374        4.3554208155       -0.8087634114
 H         -2.8805686666        4.3994032243        0.8764647146
 O         -2.6569073794        2.0224605583        1.4163834309
 C         -2.8191602070        0.6642424275        1.6326306567
 O         -3.1270820042        0.3674097342        2.8058323504
 O         -1.9474556327       -0.5243966462       -1.6762330528
 C         -2.8082965250       -1.6967914652        0.8665439411
 C         -1.5932380004       -2.4263553004        0.3504151290
 C         -1.6231511429       -3.4495497182       -0.5869975695
 C         -0.4448773296       -3.9885139614       -1.0756971641
 C          0.7838517090       -3.5152998589       -0.6505687767
 C          0.8199475715       -2.5137167947        0.3066976368
 C         -0.3568164640       -1.9922879083        0.8121350412
 H         -0.3164962282       -1.1870686490        1.5375554814
 N          2.0800761445       -1.9642652523        0.7034059142
 S          2.3175032176       -0.4914626576       -0.1050700325
 O          1.5341894753        0.5531638357        0.5217816913
 O          2.1068101333       -0.7133812981       -1.5118422362
 C          4.0519152119       -0.2129811374        0.2026763992
 C          4.4570472885        0.8196939567        1.0245846903
 C          5.8113874603        0.9902142759        1.2683746160
 C          6.7303350530        0.1267849359        0.6924772564
 C          6.3073350048       -0.9068594510       -0.1305613344
 C          4.9557550270       -1.0808750890       -0.3793682863
 H          4.5784270034       -1.8641656885       -1.0152779043
 H          7.0252940453       -1.5757347157       -0.5769870524
 H          7.7829824168        0.2609334899        0.8853805791
 H          6.1422606867        1.7937936874        1.9064946373
 H          3.7063061605        1.4672431148        1.4489284572
 H          2.0815405077       -1.7467977668        1.6931449937
 H          1.7066038914       -3.8952506216       -1.0571331100
 H         -0.4860537872       -4.7706527300       -1.8185285317
 H         -2.5698444754       -3.7967485975       -0.9680119665
 H         -2.8018179078       -1.7623388025        1.9676769347
 C         -4.1276209268       -2.2946967060        0.4050994572
 C         -5.3581790140       -1.4455402904        0.2968814232
 C         -4.7196987158       -2.0007165729       -0.9389962338
 H         -5.2261602971       -2.8005859148       -1.4592674033
 H         -4.1775622519       -1.3315992140       -1.5876408302
 H         -6.2989565480       -1.8616821235        0.6244768510
 H         -5.2533239242       -0.3888702719        0.4974883520
 H         -4.2711524017       -3.2990073950        0.7919265641
