  62
        -98.94101621
 C         -2.5726509905       -0.1964277375        0.4849218026
 C         -2.1888980546        0.3381431821       -0.7702323868
 C         -2.0011413428        1.7963562387       -0.8169912470
 C         -2.2014187920        2.5279631678        0.2926220627
 C         -2.0616686133        4.0201911705        0.3799972110
 C         -0.6574454745        4.4416983360        0.8306253858
 C          0.4758612211        3.7744991915        0.0511298582
 H          0.5058367981        2.7086427437        0.2894166510
 H          1.4127619770        4.2045530656        0.4137985556
 C          0.3935629359        3.9440742928       -1.4721477570
 H          1.3914621827        4.1803075884       -1.8472172206
 H         -0.2551615415        4.7855874528       -1.7203193554
 C         -0.0788573181        2.6938411537       -2.2178230425
 H          0.4648068748        1.8238710287       -1.8397973711
 H          0.1696307250        2.8110836581       -3.2762467012
 C         -1.5811154556        2.3938504105       -2.1297246485
 H         -1.8186626622        1.6433159274       -2.8893671460
 H         -2.1542415728        3.2980449621       -2.3475938924
 H         -0.5403097609        4.1862651217        1.8866340829
 H         -0.5791508431        5.5266579564        0.7325597566
 H         -2.2864923411        4.4533500249       -0.5929683702
 H         -2.7894481600        4.3864822477        1.1069479146
 O         -2.5502328871        1.9785685106        1.4859252675
 C         -2.7023231402        0.6083507959        1.6176152047
 O         -2.9603583582        0.2329552372        2.7812134268
 H         -0.1798071064       -1.0965562060        0.9146273897
 C         -0.3163194674       -1.9585853111        0.2759791085
 C         -1.6022125736       -2.4318463444        0.0397569298
 C         -1.7564420076       -3.5557011706       -0.7593807518
 C         -0.6483966831       -4.1743678291       -1.3150981645
 C          0.6233185377       -3.6755056042       -1.1111340783
 C          0.7867003851       -2.5402796484       -0.3214508006
 N          2.0587653290       -1.9635204938       -0.1684257396
 S          2.3062942177       -0.5644937226        0.7153166933
 O          2.1686634098       -0.8171707508        2.1361805629
 O          1.4916835530        0.4877533165        0.1665920849
 C          4.0191856243       -0.2719626343        0.3197680973
 C          5.0066389898       -0.7303057350        1.1708358948
 C          6.3345121314       -0.5239207880        0.8306867827
 C          6.6506654877        0.1319059843       -0.3495179585
 C          5.6485788014        0.5884078076       -1.1929990640
 C          4.3194200000        0.3852373004       -0.8581105596
 H          3.5060298053        0.7277815224       -1.4768820045
 H          5.8971231968        1.1008382468       -2.1083529004
 H          7.6844435177        0.2912972358       -0.6124141407
 H          7.1154810186       -0.8743861104        1.4860678746
 H          4.7134166607       -1.2247300406        2.0830432381
 H          2.8252247220       -2.6174899748       -0.1226455283
 H          1.4822837050       -4.1434751939       -1.5658659124
 H         -0.7818146710       -5.0514885621       -1.9302034942
 H         -2.7419917656       -3.9407266143       -0.9632569211
 C         -2.7443593566       -1.6918617888        0.6946180249
 H         -2.6487847259       -1.8351570692        1.7851713357
 C         -4.1157348077       -2.2260838713        0.3048819298
 C         -5.3019899097       -1.3165767474        0.1927395542
 C         -4.7221169022       -1.9460262387       -1.0361942590
 H         -5.2826843128       -2.7321946410       -1.5205043480
 H         -4.1554735525       -1.3272310961       -1.7134928763
 H         -5.1409372239       -0.2601431880        0.3536297419
 H         -6.2540507362       -1.6728985972        0.5570318978
 H         -4.3076604211       -3.2050158703        0.7333791404
 O         -2.0262709479       -0.3532551777       -1.8088609495
