  62
        -98.94178868
 C          2.0728726918        1.5218189702        0.0647533326
 C          2.3629734551        0.6103421677       -0.9806628822
 C          3.6948644354       -0.0116976007       -0.9337930318
 C          4.5468667364        0.2857637144        0.0626876952
 C          5.9383226145       -0.2595181740        0.2360419557
 C          5.9898460140       -1.6269055216        0.9311262059
 C          5.5154709836       -2.8068439566        0.0818467396
 H          6.0414538456       -2.8003616842       -0.8734089257
 H          5.8071786541       -3.7179477502        0.6080755151
 C          4.0004243347       -2.8435577190       -0.1630960662
 H          3.4978142908       -2.1966898470        0.5601498493
 H          3.6288182899       -3.8572039691        0.0045638760
 C          3.5771953805       -2.4337308431       -1.5737320324
 H          3.9710132970       -3.1514841397       -2.2968787605
 H          2.4860679297       -2.4689439265       -1.6273372784
 C          4.0284496104       -1.0264314767       -1.9862015468
 H          5.0983132653       -1.0212988691       -2.1931247540
 H          3.4935557104       -0.7493563516       -2.8979895161
 H          5.3969110193       -1.5758262872        1.8473698253
 H          7.0284005764       -1.8080279653        1.2174578857
 H          6.4314601825       -0.3243521241       -0.7342686801
 H          6.4789862642        0.4607556046        0.8537849212
 O          4.2304520331        1.1622608680        1.0520758465
 C          2.9955814684        1.7868258803        1.0819165039
 O          2.8399024757        2.5587246601        2.0493206302
 H         -0.0328391329       -0.2344347974       -0.4330530347
 C         -0.5831953666        0.1663579619        0.4053848171
 C         -0.3002248158        1.4501192715        0.8524982215
 C         -1.0253328357        1.9557877513        1.9247918080
 C         -2.0021887433        1.1907062426        2.5388599679
 C         -2.2795100365       -0.0886625867        2.0926395823
 C         -1.5636507147       -0.6010113104        1.0176536447
 N         -1.8496267177       -1.8939606340        0.5445048825
 S         -3.4606333414       -2.2788400223        0.2971665499
 O         -4.0662475362       -2.6413323600        1.5545835909
 O         -3.4581037120       -3.3046698880       -0.7213360748
 C         -4.2022978279       -0.7784443361       -0.3204872912
 C         -3.7568099145       -0.2857092066       -1.5312349190
 C         -4.2856811865        0.9033467788       -2.0065596526
 C         -5.2436951264        1.5774983125       -1.2648509308
 C         -5.6847696965        1.0667966965       -0.0541196246
 C         -5.1592676363       -0.1220730194        0.4262829588
 H         -5.4726216070       -0.5538280406        1.3626950730
 H         -6.4316953501        1.5919907710        0.5189389958
 H         -5.6470974127        2.5065385699       -1.6351069205
 H         -3.9418506669        1.3027496804       -2.9470728324
 H         -3.0114097324       -0.8348373794       -2.0850949129
 H         -1.2860000700       -2.1655944470       -0.2477991011
 H         -3.0307493282       -0.7020141152        2.5630648050
 H         -2.5529442401        1.5937975368        3.3747430622
 H         -0.8079988485        2.9502765569        2.2858873838
 C          0.7584674701        2.2794828272        0.1725999584
 H          0.9782418485        3.1354607088        0.8294519448
 C          0.2980305658        2.8473950033       -1.1648176798
 C         -0.8902869344        2.3447106477       -1.9222139996
 C         -0.9515577012        3.6746426629       -1.2375623343
 H         -0.9433496887        4.5718571413       -1.8374177649
 H         -1.5504979875        3.7441634024       -0.3420683895
 H         -0.8153008450        2.3128867618       -2.9984288964
 H         -1.4599875638        1.5317671200       -1.5009697158
 H          1.1385240772        3.1843154282       -1.7636192683
 O          1.5710422660        0.3133833312       -1.9124196397
