  62
        -98.93880053
 C         -1.8498150735       -0.6995916920        0.2839060195
 C         -2.1821002910        0.5823666944       -0.2265270850
 C         -3.5606783036        0.7652175979       -0.6964123533
 C         -4.4124522611       -0.2745271295       -0.6438094732
 C         -5.8588551717       -0.2207111086       -1.0406690137
 C         -6.7508749307        0.1375706686        0.1561131136
 C         -6.2681337796        1.3557869367        0.9434124295
 H         -6.9898339142        1.5321624484        1.7440090026
 H         -5.3135110076        1.1174978744        1.4180760828
 C         -6.1116540573        2.6323950052        0.1053332023
 H         -6.5489484818        3.4679825785        0.6559265794
 H         -6.6676543033        2.5333193182       -0.8276204426
 C         -4.6631620635        3.0134693464       -0.2063005375
 H         -4.6580209964        4.0313124474       -0.6052078780
 H         -4.0795886556        3.0212016927        0.7176915736
 C         -3.9420414787        2.1199342285       -1.2234477586
 H         -4.5496125477        2.0251756827       -2.1257839304
 H         -3.0022906870        2.6116057414       -1.4909887777
 H         -6.7804336081       -0.7184844085        0.8342230473
 H         -7.7637753494        0.3161367264       -0.2094771653
 H         -5.9847436081        0.5138112941       -1.8337893385
 H         -6.1490594653       -1.2028806785       -1.4176101933
 O         -4.0555901264       -1.4948484964       -0.1738808241
 C         -2.7733685739       -1.7458977937        0.3067250074
 O         -2.6142011744       -2.9133814758        0.7048018987
 H          2.0177561127        0.0489659180        0.1915220445
 C          1.7462524329       -0.7896717551       -0.4302415471
 C          0.4993069401       -1.3777530405       -0.2795749845
 C          0.1533476365       -2.4366793729       -1.1123000088
 C          1.0446457718       -2.8950931221       -2.0655066913
 C          2.3003100399       -2.3265989762       -2.1900574750
 C          2.6556637320       -1.2678664991       -1.3630502839
 N          3.9164685385       -0.6646564831       -1.4584222934
 S          4.7090970388       -0.1808891633       -0.0633772804
 O          6.1083869493       -0.1586168508       -0.4306379421
 O          4.3559169681       -1.0167987540        1.0593596662
 C          4.1533228623        1.4884946749        0.2028471859
 C          4.3084412730        2.3996410747       -0.8229682704
 C          3.8873786536        3.7048699111       -0.6275437069
 C          3.3234252297        4.0754307601        0.5839917512
 C          3.1789508197        3.1499515079        1.6057713933
 C          3.5983220081        1.8426607111        1.4164040095
 H          3.4985354461        1.0906212404        2.1838398334
 H          2.7382130780        3.4388366006        2.5465161019
 H          2.9927897143        5.0911347296        0.7336230064
 H          3.9971462071        4.4284936921       -1.4191397575
 H          4.7541658977        2.0750414039       -1.7483361960
 H          4.5447054435       -1.0890621664       -2.1248822526
 H          3.0001444693       -2.6987211245       -2.9228671687
 H          0.7642364406       -3.7161224182       -2.7083092099
 H         -0.8135015048       -2.9031991006       -0.9975860237
 C         -0.4306276960       -0.8705897173        0.7924528889
 H         -0.1019781847        0.1503653746        1.0461882574
 C         -0.3361263147       -1.6985044865        2.0668629270
 C          0.1866138374       -3.0993454386        2.1089182878
 C          0.9983595812       -1.9836113812        2.6917829359
 H          1.0870411922       -1.9178444468        3.7660243409
 H          1.8887881685       -1.6810048571        2.1587165318
 H         -0.3015887664       -3.7965336972        2.7725945272
 H          0.5224881524       -3.5456968424        1.1862770015
 H         -1.1504734440       -1.4752387040        2.7496032603
 O         -1.3580592772        1.5348557487       -0.2773892787
