  62
        -98.94642080
 C          1.5722229334        1.0899551857        0.0389946867
 C          2.6372314827        0.8243771972        0.9368357084
 C          3.3566541154       -0.4391227575        0.7315957846
 C          2.9483345672       -1.2769859813       -0.2385984132
 C          3.6091365589       -2.5804692791       -0.5795119132
 C          4.6832398371       -2.3923899658       -1.6601479839
 C          5.6564260430       -1.2492476041       -1.3720721069
 H          6.3858383886       -1.2307818085       -2.1847960717
 H          5.1143152578       -0.3014141641       -1.4062765215
 C          6.3910563330       -1.3635113247       -0.0290150323
 H          6.3334275883       -2.3884881595        0.3391205714
 H          7.4472665596       -1.1356164816       -0.1875501009
 C          5.8868989927       -0.4070491848        1.0534337941
 H          6.6069944354       -0.4152851206        1.8759940216
 H          5.8562491945        0.6110171062        0.6568506053
 C          4.5110772682       -0.7361770059        1.6465548106
 H          4.4902054333       -1.7788927562        1.9695149215
 H          4.3676606739       -0.1014866354        2.5258621949
 H          5.2375898569       -3.3270718795       -1.7624688673
 H          4.1864648906       -2.1866454743       -2.6111945729
 H          4.0541144690       -3.0022186857        0.3194868986
 H          2.8488285700       -3.2677115015       -0.9543347716
 O          1.9029231566       -1.0042082134       -1.0586782089
 C          1.2005766586        0.1893142303       -0.9590456688
 O          0.2933318004        0.3103654397       -1.8038031044
 O          2.9687922025        1.6083956264        1.8649980558
 C          0.7802839990        2.3741635882        0.2301699099
 C         -0.5993009614        1.9752857359        0.6896308727
 C         -0.8038154658        1.6404506211        2.0257523640
 C         -2.0274738443        1.1628403528        2.4560609234
 C         -3.0657257753        0.9818221880        1.5581732404
 C         -2.8653155991        1.3015455031        0.2223350338
 C         -1.6493634701        1.8203881204       -0.2012610953
 H         -1.5114160406        2.0581350976       -1.2436778008
 N         -3.8922466525        1.0608252149       -0.7089084908
 S         -4.6398676655       -0.4345386835       -0.6190798442
 O         -5.0451746588       -0.7451923567       -1.9727178812
 O         -5.7097584819       -0.3727900717        0.3475011785
 C         -3.4023862759       -1.5931882072       -0.0526783892
 C         -3.7032416462       -2.4250090637        1.0075152153
 C         -2.7498509042       -3.3295684488        1.4456747561
 C         -1.5126973374       -3.3842052682        0.8223543397
 C         -1.2270862379       -2.5437915560       -0.2419788716
 C         -2.1782791384       -1.6409558868       -0.6892915480
 H         -1.9515502825       -0.9750584084       -1.5069924104
 H         -0.2635624125       -2.5686957231       -0.7268857494
 H         -0.7657686719       -4.0821725642        1.1668415546
 H         -2.9713768757       -3.9843874367        2.2730053735
 H         -4.6733836837       -2.3414941826        1.4701296979
 H         -3.6209428136        1.2629884555       -1.6606963664
 H         -4.0212848229        0.5910030206        1.8690136331
 H         -2.1727486258        0.9148204023        3.4962940590
 H          0.0177787194        1.7449357504        2.7203984310
 H          1.2793881210        2.9071256962        1.0500386071
 C          0.7957463057        3.2503668578       -1.0039974984
 C          0.3496059005        4.6770191258       -0.8954060309
 C          1.7989602430        4.3586013918       -1.1031692822
 H          2.2409724095        4.5681798658       -2.0658225499
 H          2.4767693644        4.4955833768       -0.2734115562
 H         -0.2051758741        5.1092653766       -1.7141676322
 H          0.0418176637        5.0285724945        0.0777028587
 H          0.5643385690        2.7151008112       -1.9169046837
