  62
        -98.93682466
 C          1.0704817412        0.7501025892        0.9607499798
 C          1.7053786611        0.6746840388       -0.3030884203
 C          2.3733957905       -0.6002413815       -0.6238753002
 C          2.2595157701       -1.6404164314        0.2164873698
 C          2.7968977695       -3.0410107116        0.0582539699
 C          4.2318961194       -3.1944059822       -0.4655412702
 C          5.1969573599       -2.0706129626       -0.0601282904
 H          4.7438376302       -1.4498892524        0.7146160696
 H          6.0994172997       -2.5148502330        0.3636806796
 C          5.6170723402       -1.1894187329       -1.2390590105
 H          5.8267144098       -1.8306970930       -2.0978787704
 H          6.5457419704       -0.6755023733       -0.9798210606
 C          4.6075166906       -0.1182716525       -1.6506474705
 H          4.5610633010        0.6598515776       -0.8837284005
 H          4.9724622407        0.3552026173       -2.5652363305
 C          3.1737659404       -0.6185030419       -1.8935455903
 H          2.6769618906        0.0825859783       -2.5701948503
 H          3.1694235599       -1.6021944819       -2.3574637602
 H          4.2149963593       -3.2725469323       -1.5518186002
 H          4.6045020090       -4.1483118824       -0.0882402602
 H          2.7204263694       -3.4897827215        1.0518490899
 H          2.1143816592       -3.5902758614       -0.5977808200
 O          1.5544384602       -1.5556790610        1.3805215999
 C          0.9529965708       -0.3730389507        1.7798135799
 O          0.3430746108       -0.4552693404        2.8651399099
 H         -1.4948657690        0.4700561102        0.3047520700
 C         -1.4892994186        1.4387784302       -0.1724479201
 C         -0.6054072582        2.4073528599        0.2874093498
 C         -0.6057940977        3.6529359298       -0.3230238203
 C         -1.4521681877        3.9005552501       -1.3909013302
 C         -2.2912398181        2.9162096704       -1.8796540801
 C         -2.3031600186        1.6672434005       -1.2669556500
 N         -3.1411450291        0.6395138908       -1.7227091299
 S         -2.6990530397       -0.9638475194       -1.5434669398
 O         -1.2747210298       -1.1670248400       -1.6729719199
 O         -3.5275303201       -1.6642691191       -2.5037349697
 C         -3.2540367998       -1.3750602790        0.0971371203
 C         -4.5700353596       -1.1117820384        0.4236617604
 C         -5.0189541797       -1.4237180482        1.6964219904
 C         -4.1492462798       -1.9894050485        2.6171097804
 C         -2.8327235500       -2.2532484191        2.2727325003
 C         -2.3799851100       -1.9466899693        0.9993055202
 H         -1.3572328401       -2.1252437698        0.7017407302
 H         -2.1469514201       -2.6791377393        2.9876832003
 H         -4.4963142899       -2.2258003583        3.6105871404
 H         -6.0420844696       -1.2214436577        1.9692832305
 H         -5.2129325695       -0.6715179282       -0.3199746996
 H         -3.6068770091        0.8170566710       -2.6002332498
 H         -2.9244247581        3.1043676607       -2.7332801800
 H         -1.4402152673        4.8697374401       -1.8663957003
 H          0.0761866527        4.4169585196        0.0122933396
 C          0.3181810418        1.9949275995        1.4070340598
 H         -0.3079671383        1.6546905699        2.2488221198
 C          1.1873465123        3.1204718692        1.9433358796
 C          2.5220338022        2.8302548087        2.5613771695
 C          2.4428773824        3.5730922086        1.2632410795
 H          2.6712105829        4.6291143785        1.2659836894
 H          2.7305126421        3.0665227884        0.3563507595
 H          2.8653666618        1.8055923585        2.5438222696
 H          2.8063170625        3.3713998986        3.4513728795
 H          0.5936052826        3.8903594695        2.4266759296
 O          1.7255401114        1.6170314788       -1.1358352003
