  62
        -98.94089022
 C          1.5689790801        0.6609403663        0.3986196200
 C          2.6685711970        0.8983231400       -0.4634263989
 C          3.5978798907       -0.2303685243       -0.6300139882
 C          3.3428727407       -1.4108589373       -0.0398495249
 C          4.1781520728       -2.6575540483       -0.1491769252
 C          5.3605396104       -2.7043851731        0.8283572626
 C          6.5180615407       -1.7619087224        0.4960932560
 H          7.3593315846       -2.0525811848        1.1285025413
 H          6.8227675741       -1.9130893550       -0.5399266109
 C          6.2132074066       -0.2761930387        0.7334084705
 H          7.0482904032        0.1867436938        1.2641841478
 H          5.3352461580       -0.1828637782        1.3770507635
 C          5.9810332772        0.5345610166       -0.5417620845
 H          5.7377152418        1.5610939918       -0.2556750511
 H          6.8997367546        0.5592638410       -1.1320096529
 C          4.8449307236        0.0067086022       -1.4274582548
 H          4.6182072040        0.7642808080       -2.1814787888
 H          5.1555533696       -0.9079327983       -1.9316872162
 H          5.7427759035       -3.7278157193        0.8285310821
 H          4.9918219239       -2.4878803501        1.8337850295
 H          3.5154691533       -3.4964749635        0.0737016596
 H          4.5447788264       -2.7654348009       -1.1703364246
 O          2.2432843733       -1.6161110457        0.7343096735
 C          1.3556645003       -0.5855321427        0.9926455358
 O          0.4199417346       -0.8990260348        1.7565966973
 H         -2.1168252912        1.3744344096        1.2220970551
 C         -1.9055902082        1.4569613014        0.1666640466
 C         -0.6033782420        1.6424491865       -0.2714397735
 C         -0.3607685639        1.7323391163       -1.6395193255
 C         -1.4048048524        1.6459487832       -2.5411951514
 C         -2.7024333736        1.4470468906       -2.1008911419
 C         -2.9534915024        1.3468948039       -0.7382756328
 N         -4.2601695420        1.1448561887       -0.2590884781
 S         -4.5398226986       -0.0859936523        0.8439877697
 O         -5.9778001773       -0.2439365562        0.8479830810
 O         -3.9342669399        0.2407825177        2.1081820424
 C         -3.7794305717       -1.5208612812        0.1071499586
 C         -2.4577442586       -1.8207793616        0.3664675699
 C         -1.8802572218       -2.8998028013       -0.2857099468
 C         -2.6246402981       -3.6556696648       -1.1770400652
 C         -3.9535560008       -3.3427416891       -1.4229326860
 C         -4.5356874428       -2.2629733655       -0.7807974414
 H         -5.5670888647       -1.9897687585       -0.9356006084
 H         -4.5331157856       -3.9348188470       -2.1127685246
 H         -2.1668203040       -4.4935419592       -1.6790126437
 H         -0.8457643283       -3.1317091711       -0.0841610184
 H         -1.8848810359       -1.2317924560        1.0655874776
 H         -4.9626327033        1.1225974641       -0.9851955651
 H         -3.5156008916        1.3708305612       -2.8066218125
 H         -1.2061765099        1.7242503677       -3.5993219412
 H          0.6528969123        1.8753109657       -1.9823509251
 C          0.5236899459        1.7152488887        0.7260620514
 H          0.1120471112        1.4216250205        1.7055745783
 C          1.1045007343        3.1135978096        0.8849412145
 C          0.7863258741        4.2559817683       -0.0276703415
 C          0.2189915614        4.2288407116        1.3575619763
 H          0.6016988116        4.9200549741        2.0932621034
 H         -0.8339891691        4.0110534123        1.4630314905
 H          0.1160840117        4.0825046191       -0.8543732067
 H          1.5817150631        4.9505803387       -0.2506959964
 H          2.1110623402        3.0915359317        1.2894073704
 O          2.8809157597        1.9773725523       -1.0710956798
