  62
        -98.93893055
 C          1.9764485920        1.6283487654       -0.2198737246
 C          2.7649863400        1.1752283672        0.8715060490
 C          3.9202894183        0.3314745368        0.5492137212
 C          4.1789517912        0.0478185415       -0.7398264598
 C          5.2772759220       -0.8578651792       -1.2154984366
 C          4.7836251335       -2.3058970978       -1.3426893806
 C          4.0331864265       -2.8146044158       -0.1114017314
 H          3.0999565913       -2.2555284017       -0.0056500628
 H          3.7603490437       -3.8546095783       -0.3044403049
 C          4.8290824257       -2.7282991877        1.1987193591
 H          4.7067914306       -3.6666846662        1.7436237009
 H          5.8915210120       -2.6168751582        0.9790887722
 C          4.3853631348       -1.6055172891        2.1384528449
 H          4.8535396815       -1.7724078954        3.1121622044
 H          3.3027433717       -1.6544679750        2.2822875484
 C          4.7470134626       -0.1829289475        1.6934121424
 H          4.5468264058        0.4892295022        2.5328559683
 H          5.8112173508       -0.1304094870        1.4551384588
 H          4.1108426879       -2.3682529040       -2.2015394335
 H          5.6440480420       -2.9487266916       -1.5378718292
 H          5.6117582788       -0.5100414052       -2.1942989215
 H          6.1105453972       -0.8067070236       -0.5173043720
 O          3.4285116896        0.5265683140       -1.7614062102
 C          2.2985711193        1.3152734909       -1.5402262704
 O          1.7308071682        1.6569573128       -2.5924824532
 H         -0.0264967884       -0.0908355202       -0.4787382008
 C         -0.5004317707        0.2643236014        0.4255289901
 C         -0.2164745798        1.5338212337        0.9091445324
 C         -0.8324297039        1.9543879888        2.0826874607
 C         -1.7055027886        1.1234453266        2.7608115841
 C         -1.9986277665       -0.1348014562        2.2665276939
 C         -1.3926025100       -0.5631932155        1.0917819107
 N         -1.6856271300       -1.8312623273        0.5394706125
 S         -2.5985134146       -1.8025688277       -0.8669078957
 O         -2.8650670815       -3.1871087711       -1.1862034286
 O         -1.9178683346       -1.0216918378       -1.8656298882
 C         -4.1133264042       -0.9965926252       -0.3745840600
 C         -5.1889472567       -1.7711719927        0.0144273263
 C         -6.3375649457       -1.1437313448        0.4695776400
 C         -6.3861243082        0.2404660707        0.5387813480
 C         -5.2966517588        1.0038958017        0.1481032252
 C         -4.1466343731        0.3825088201       -0.3128368002
 H         -3.2840938260        0.9449024136       -0.6317357909
 H         -5.3337583735        2.0800085673        0.2003592587
 H         -7.2784780596        0.7283076957        0.8977846804
 H         -7.1874804637       -1.7347698512        0.7705028692
 H         -5.1066910444       -2.8435777903       -0.0600254654
 H         -2.1184226377       -2.4654301850        1.1978952271
 H         -2.6822293064       -0.7873788647        2.7888378026
 H         -2.1648643208        1.4586681782        3.6777692513
 H         -0.6020225188        2.9340623361        2.4740956576
 C          0.7501483638        2.4339883479        0.1784447929
 H          1.1067694156        3.1781014794        0.9109203153
 C          0.0809490298        3.2031068586       -0.9475833822
 C         -1.0139113474        2.6305057378       -1.7909951986
 C         -1.3252430068        3.7057614952       -0.7958078478
 H         -1.5593313990        4.6924771931       -1.1654393865
 H         -1.8643293771        3.4256119007        0.0968763586
 H         -1.0078806414        2.8746490536       -2.8424387108
 H         -1.3312392170        1.6161095659       -1.6012042106
 H          0.7813761094        3.8538902766       -1.4597160575
 O          2.5043863895        1.4730675392        2.0680312345
