  62
        -98.93868567
 C         -2.0363750057       -0.4450948054       -0.2637085543
 C         -3.0467872567       -0.8876116654        0.6227368236
 C         -4.2637656836       -0.0599578997        0.7237040312
 C         -4.3344785883        1.0737912511        0.0016494990
 C         -5.4766289843        2.0504242962       -0.0870390578
 C         -6.6312481049        1.5323857131       -0.9606046148
 C         -7.0042751569        0.0695054259       -0.7339018879
 H         -7.7469626055       -0.2040566963       -1.4880590582
 H         -6.1253441752       -0.5548897903       -0.9042273660
 C         -7.5943071415       -0.2470804905        0.6382046201
 H         -7.8857315517       -1.3005196162        0.6309185893
 H         -8.4997793532        0.3462964140        0.7839995828
 C         -6.6674869613       -0.0189338347        1.8338504024
 H         -7.1296072733       -0.5017027167        2.7000074515
 H         -6.5921792416        1.0380580231        2.0746572640
 C         -5.2763237178       -0.6279852419        1.6889212713
 H         -4.7870530918       -0.6145005871        2.6704666390
 H         -5.3749410943       -1.6887432123        1.4317269974
 H         -7.5042321728        2.1643254966       -0.7889510082
 H         -6.3365505233        1.6413898191       -2.0072423186
 H         -5.8269814646        2.3059390524        0.9086100002
 H         -5.0773264025        2.9596432068       -0.5420065486
 O         -3.3255530957        1.4741245905       -0.8229286969
 C         -2.1621319951        0.7431490783       -0.9819679899
 O         -1.3477256673        1.2502946494       -1.7773955074
 O         -2.9460772412       -1.9439688220        1.3030608739
 C         -0.7751657547       -1.2841815453       -0.3877408099
 C          0.3627823796       -0.5345673583        0.2589705620
 C          0.5140183060       -0.5939163950        1.6418036546
 C          1.5153925621        0.1180739000        2.2749078443
 C          2.3856792205        0.9072578706        1.5433302854
 C          2.2418999921        0.9739099578        0.1638279165
 C          1.2449257079        0.2453275891       -0.4727652445
 H          1.1342904079        0.3211277253       -1.5426863333
 N          3.1172982052        1.7768023064       -0.5844192783
 S          4.7506984125        1.7134333150       -0.2399823294
 O          5.0379362640        2.5248403354        0.9171289836
 O          5.4134026691        2.1041250390       -1.4644039939
 C          5.0801583326       -0.0009863599        0.1295117282
 C          5.5049396720       -0.3673059016        1.3901332229
 C          5.7198805242       -1.7092493086        1.6615093558
 C          5.5040786792       -2.6566084147        0.6731626660
 C          5.0810009115       -2.2722926606       -0.5902635634
 C          4.8646556330       -0.9324589440       -0.8669788408
 H          4.5414520118       -0.5993187675       -1.8400870341
 H          4.9158669595       -3.0110359388       -1.3580199550
 H          5.6675408835       -3.7011080982        0.8868445578
 H          6.0509744221       -2.0106707758        2.6422324471
 H          5.6604349740        0.4015617766        2.1292396745
 H          2.9370577103        1.7697266691       -1.5769266668
 H          3.1611663858        1.4841793152        2.0204449913
 H          1.6189288137        0.0630879352        3.3478824777
 H         -0.1754862446       -1.1977267757        2.2149389847
 H         -0.9698288981       -2.1850609823        0.2094984640
 C         -0.5033923607       -1.6975490076       -1.8188342916
 C          0.4816248609       -2.7942406113       -2.0892862124
 C         -0.9828740663       -3.0339001652       -2.2970741077
 H         -1.3558879386       -3.1150619697       -3.3071655326
 H         -1.5047294521       -3.6603832620       -1.5886795812
 H          1.1162066216       -2.7149945489       -2.9586093420
 H          0.9544340541       -3.2572341082       -1.2366416090
 H         -0.5560138836       -0.8755382161       -2.5222217598
