  62
        -98.94087624
 C          1.8393835162        0.7216172857        0.5492562295
 C          2.3098043179       -0.0232456459       -0.5608867723
 C          3.4460082124       -0.9169987083       -0.2898875603
 C          3.9189633457       -1.0474021869        0.9617419594
 C          5.0587129330       -1.9293869206        1.3936080056
 C          6.4434387522       -1.2968892242        1.1977151461
 C          6.9165617366       -1.2023760728       -0.2534659057
 H          7.9774995473       -0.9458469128       -0.2277121819
 H          6.8300196320       -2.1809467614       -0.7268507550
 C          6.1760788740       -0.1538935764       -1.0955482377
 H          5.6546098726        0.5422827063       -0.4345404099
 H          6.8998283836        0.4308666983       -1.6676203835
 C          5.1737017643       -0.7346919200       -2.0931912494
 H          4.6843108717        0.0948914183       -2.6099742836
 H          5.7032734432       -1.3295717716       -2.8405714525
 C          4.0833705766       -1.6074522114       -1.4575208193
 H          4.4998790539       -2.5673814548       -1.1527455794
 H          3.3046034848       -1.7844194957       -2.2036858696
 H          6.4389685632       -0.3002441570        1.6453352608
 H          7.1608124400       -1.9063075153        1.7521742968
 H          4.9159379561       -2.1231447931        2.4590349788
 H          5.0114969163       -2.8785955544        0.8589525375
 O          3.3766582497       -0.3844570296        2.0183362769
 C          2.3425555107        0.5203423705        1.8368907394
 O          1.9495571070        1.0622809938        2.8900145951
 O          1.8214805824        0.0427215094       -1.7171219536
 C          0.7045230807        1.7226886950        0.4154353305
 C         -0.4267025612        1.1147159861       -0.3772750809
 C         -0.9329805590        1.6597650951       -1.5489312947
 C         -1.9717422996        1.0365621224       -2.2192536257
 C         -2.5309660216       -0.1314390535       -1.7362971771
 C         -2.0388527930       -0.6792936152       -0.5578692488
 C         -1.0036999037       -0.0503015399        0.1153790364
 H         -0.6162915431       -0.4813556631        1.0311184280
 N         -2.6073368855       -1.8608063494       -0.0515874471
 S         -4.2756546552       -1.9842636591       -0.0329324999
 O         -4.5754914315       -2.8942985538        1.0505211311
 O         -4.7490564259       -2.3810450045       -1.3355712523
 C         -4.8610569670       -0.3422468708        0.3477298382
 C         -4.4906555263        0.2143849373        1.5560099089
 C         -4.9028435200        1.5025221742        1.8552708901
 C         -5.6740119589        2.2091883280        0.9448511917
 C         -6.0421643549        1.6345080376       -0.2614744366
 C         -5.6315565965        0.3465676581       -0.5665002401
 H         -5.8936473619       -0.1375642895       -1.4930255971
 H         -6.6434438880        2.1856313797       -0.9662984529
 H         -5.9896428119        3.2134735750        1.1794713403
 H         -4.6177563304        1.9504176724        2.7937844053
 H         -3.8948412439       -0.3634268467        2.2446643840
 H         -2.2050116512       -2.1710550486        0.8200876792
 H         -3.3261325195       -0.6379916176       -2.2587862221
 H         -2.3465304012        1.4632710141       -3.1369599908
 H         -0.4959794477        2.5568083237       -1.9548685470
 H          0.3428925088        1.8774493099        1.4455417918
 C          1.1389554463        3.0878436363       -0.0973596931
 C          2.5296827015        3.5934698226        0.1421292490
 C          2.0854809237        3.2520201480       -1.2467939896
 H          1.9125132794        4.0615849480       -1.9408722071
 H          2.4716842173        2.3575287306       -1.7083506751
 H          2.6601654959        4.6330436811        0.4029344720
 H          3.2253906476        2.9303750552        0.6363051924
 H          0.3436009662        3.8218002457       -0.0131845970
