  62
        -98.93745515
 C          1.7872420095        0.8768370416        0.3861017311
 C          2.4681319794        0.3213651662       -0.7235654721
 C          3.6023912445       -0.5622187446       -0.4062797694
 C          3.8921680687       -0.8250211542        0.8808754386
 C          5.0644611651       -1.6308041771        1.3638830191
 C          6.3510816231       -0.7842809549        1.2834113256
 C          7.3838603463       -1.2999368898        0.2810998673
 H          8.1364846810       -0.5184875344        0.1564575390
 H          7.8837177266       -2.1738670402        0.7041855686
 C          6.8404106380       -1.6927530185       -1.0961570886
 H          7.7001883160       -1.7786811686       -1.7640609770
 H          6.3881158950       -2.6842907067       -1.0434856721
 C          5.8274233452       -0.7242172245       -1.7202694296
 H          5.9563797651        0.2801887002       -1.3164349317
 H          6.0307897439       -0.6648403306       -2.7914004444
 C          4.3549413851       -1.1499099071       -1.5677825557
 H          3.8018820410       -0.8207760519       -2.4526875225
 H          4.2919322877       -2.2411087729       -1.5301034298
 H          6.0714552981        0.2392420296        1.0251437626
 H          6.8210629686       -0.7423343287        2.2671526237
 H          4.8609073198       -1.9157804937        2.3963748304
 H          5.1619194660       -2.5342890759        0.7659707844
 O          3.1779325802       -0.3147908802        1.9183791047
 C          2.1129541123        0.5436833460        1.6999040401
 O          1.5386346608        0.9276346994        2.7399158933
 O          2.1501861456        0.5514195539       -1.9188715845
 C          0.6251117549        1.8303619055        0.1683631689
 C         -0.4909457600        1.1171455946       -0.5561473208
 C         -1.0925206158        1.5961611438       -1.7114110317
 C         -2.1093476533        0.8796241452       -2.3205177177
 C         -2.5561961001       -0.3143061133       -1.7867814311
 C         -1.9746472349       -0.7915770526       -0.6180129192
 C         -0.9545318279       -0.0754064747       -0.0124581567
 H         -0.4985801452       -0.4498573457        0.8962924037
 N         -2.4424259696       -1.9894223113       -0.0505010585
 S         -4.1006229568       -2.1942136972        0.0609653933
 O         -4.3015848292       -3.0550706368        1.2057077912
 O         -4.6122028469       -2.6890165832       -1.1929240490
 C         -4.7573739265       -0.5649115835        0.3765014181
 C         -5.6568148849       -0.0025603343       -0.5061143542
 C         -6.1300022714        1.2759743973       -0.2576148552
 C         -5.6940217496        1.9679704049        0.8613397575
 C         -4.7931206297        1.3875735375        1.7413053665
 C         -4.3188970305        0.1087154034        1.4994003913
 H         -3.6201577855       -0.3694079445        2.1676179672
 H         -4.4541075696        1.9263440300        2.6116861411
 H         -6.0576087755        2.9654273212        1.0513573093
 H         -6.8323426705        1.7287623816       -0.9386130728
 H         -5.9649207960       -0.5745344509       -1.3660963682
 H         -1.9836459166       -2.2399991258        0.8127068014
 H         -3.3371962968       -0.8895756468       -2.2569583428
 H         -2.5588475335        1.2563205268       -3.2263329861
 H         -0.7586716965        2.5245950164       -2.1434816205
 H          0.2594025017        2.0915585053        1.1720921412
 C          1.0961824192        3.0927548574       -0.5213294724
 C          0.3499162835        4.3770014877       -0.3246363752
 C          1.6951454707        4.1875932558        0.3076354872
 H          2.5364562329        4.7347316745       -0.0905838960
 H          1.7438708069        4.0317914482        1.3758738906
 H          0.2687859042        5.0594788033       -1.1569479061
 H         -0.5179390903        4.3569736592        0.3167598297
 H          1.5414295807        2.8990685080       -1.4899945056
