  62
        -98.94453717
 C         -2.0880623602       -0.2570045206       -0.2016772303
 C         -3.0506557200       -0.9418138808        0.5794058098
 C         -4.2683360801       -0.1891818510        0.9061616000
 C         -4.3865985203        1.0835779290        0.4856134301
 C         -5.5942156605        1.9478825787        0.7018493103
 C         -6.5844947506        1.8188500986       -0.4641580196
 C         -6.9081491104        0.3735865186       -0.8431313597
 H         -7.6388053105        0.4062128785       -1.6542450596
 H         -6.0078941603       -0.1005969912       -1.2406178798
 C         -7.4610798601       -0.4765171816        0.3092894404
 H         -7.8221033101        0.1722632383        1.1081240204
 H         -8.3173040600       -1.0473718317       -0.0562059696
 C         -6.4664844898       -1.4853821514        0.8864872402
 H         -7.0167628496       -2.1724470916        1.5348034302
 H         -6.0330018998       -2.0767322713        0.0760513001
 C         -5.3210054998       -0.8922144113        1.7164011201
 H         -4.8102799996       -1.7201444412        2.2168228700
 H         -5.7268219799       -0.2270260414        2.4813253802
 H         -7.5043021707        2.3412978685       -0.1949947195
 H         -6.1558398708        2.3143847188       -1.3383904496
 H         -5.2655423607        2.9859812588        0.7750005403
 H         -6.0765399903        1.6633447886        1.6349929703
 O         -3.4273179506        1.7185903992       -0.2343921900
 C         -2.2581016305        1.0680730594       -0.6026382802
 O         -1.4739410007        1.7669895096       -1.2720897303
 O         -2.8969367797       -2.1252552108        0.9841096797
 C         -0.8104913401       -0.9865829503       -0.5814377105
 C          0.3579570699       -0.3047368901        0.0852367194
 C          0.4408749400       -0.3369027402        1.4754544694
 C          1.4724142800        0.2991720700        2.1381738093
 C          2.4461200198        0.9820493702        1.4296090392
 C          2.3758538496        1.0150658302        0.0439013992
 C          1.3433082596        0.3647872201       -0.6216740907
 H          1.2999615195        0.4094783502       -1.6982160407
 N          3.3628713194        1.7008737305       -0.6812847209
 S          4.9627802895        1.4958266807       -0.2450613911
 O          5.2685787395        2.3171646407        0.8998149989
 O          5.7204315893        1.7770048909       -1.4441680112
 C          5.1033075499       -0.2282977593        0.1935895788
 C          5.4302700501       -0.5882540793        1.4848090287
 C          5.4971064904       -1.9339999593        1.8092014087
 C          5.2341432304       -2.8912227293        0.8420323486
 C          4.9107150602       -2.5136648593       -0.4524979613
 C          4.8427781399       -1.1700812593       -0.7823237812
 H          4.6003597597       -0.8434518492       -1.7807242912
 H          4.7088572402       -3.2604401493       -1.2035644713
 H          5.2824474706       -3.9381493393        1.0970064786
 H          5.7504411206       -2.2303982493        2.8143225186
 H          5.6265844000        0.1880274007        2.2062833388
 H          3.2374163393        1.6733547105       -1.6818398108
 H          3.2477393998        1.5009751203        1.9294944591
 H          1.5191481401        0.2690230099        3.2161392293
 H         -0.3246685298       -0.8629877204        2.0289977394
 H         -0.9114904799       -1.9906594803       -0.1458892905
 C         -0.6799075203       -1.1171075302       -2.0835639705
 C          0.2205109199       -2.1661147000       -2.6626435207
 C         -1.2671026301       -2.3154277903       -2.7644825305
 H         -1.7360744203       -2.1813940103       -3.7278746305
 H         -1.7520587899       -3.0538866804       -2.1430486605
 H          0.7742677897       -1.9344461198       -3.5599064208
 H          0.7460867001       -2.8061332299       -1.9706469408
 H         -0.7585270405       -0.1668957202       -2.5993396505
