  62
        -98.94356037
 C         -1.7988306937       -0.9620398731       -0.6389931014
 C         -1.9956093679       -0.0752376462        0.4471461861
 C         -3.3873737243        0.0892833667        0.8863113919
 C         -4.3683681326       -0.6027766166        0.2790284138
 C         -5.8308819258       -0.5600497840        0.6308671179
 C         -6.5934738530        0.6093642692       -0.0069817935
 C         -6.2958757025        1.9844593737        0.5922705219
 H         -7.0523230004        2.6714552497        0.2075333372
 H         -6.4168554828        1.9411511038        1.6751298278
 C         -4.9058275167        2.5376462388        0.2484935839
 H         -4.4961189034        1.9890781191       -0.6027116825
 H         -4.9958103972        3.5823674548       -0.0574939156
 C         -3.9006986576        2.4872158604        1.3992022662
 H         -4.2357736799        3.1413838213        2.2071525651
 H         -2.9426800766        2.8650524796        1.0338255535
 C         -3.6672938981        1.0834328266        1.9726374780
 H         -2.7890758650        1.1189224687        2.6218632015
 H         -4.5275836786        0.7702771970        2.5638425073
 H         -6.3781859718        0.6238921931       -1.0779302921
 H         -7.6601848517        0.4068993103        0.1142739092
 H         -6.2652872094       -1.4935373058        0.2665464177
 H         -5.9463188241       -0.5232863877        1.7145142104
 O         -4.1317594816       -1.4660465947       -0.7454258463
 C         -2.8500751172       -1.6554727756       -1.2372260221
 O         -2.7772197336       -2.4617032721       -2.1875534881
 H          2.1083385830       -0.3271268801       -0.4261850740
 C          1.7462668638       -1.1448998904        0.1724120821
 C          0.5025670033       -1.6981816577       -0.0844600811
 C          0.0742962579       -2.7691469580        0.6962921246
 C          0.8657626446       -3.2589989755        1.7163023767
 C          2.1033987412       -2.6966425667        1.9766284145
 C          2.5440109605       -1.6327129304        1.1993220493
 N          3.7735811185       -1.0202884616        1.4652892028
 S          4.6715121659       -0.2733870971        0.2765610283
 O          4.6552654654       -1.0206583059       -0.9596384337
 O          5.9741253597       -0.0850233942        0.8794572222
 C          3.9010516388        1.3149198495        0.0438811386
 C          3.3790214970        1.9805728160        1.1346860902
 C          2.7999107863        3.2247593253        0.9437530006
 C          2.7585980646        3.7825969779       -0.3248047127
 C          3.2951093027        3.1053165217       -1.4088417396
 C          3.8735262683        1.8595232554       -1.2248885158
 H          4.2935845903        1.2921620043       -2.0405959305
 H          3.2617582304        3.5410967962       -2.3949238987
 H          2.3032774233        4.7496568530       -0.4699516329
 H          2.3771080770        3.7521124483        1.7836808226
 H          3.4181708215        1.5170415229        2.1061907063
 H          4.3416248059       -1.4574674327        2.1747041878
 H          2.7199688492       -3.0746309054        2.7778182853
 H          0.5183500634       -4.0874930753        2.3153486562
 H         -0.8936306578       -3.2082086132        0.4941109235
 C         -0.3993054054       -1.1875440645       -1.1816665412
 H         -0.4889152716       -1.9766116945       -1.9429981686
 C          0.1083084654        0.0759574545       -1.8452472977
 C          1.1090618798       -0.0040801190       -2.9571351906
 C         -0.3107793309        0.3732813560       -3.2523505412
 H         -0.5272070174        1.3961368970       -3.5211753119
 H         -0.9435019416       -0.3512872628       -3.7445521851
 H          1.8671628241        0.7614546830       -3.0221187342
 H          1.4508103066       -0.9843266830       -3.2540720093
 H          0.1757975390        0.9102415598       -1.1559286483
 O         -1.0634912486        0.5432274710        1.0217952143
