  62
        -98.93933572
 C         -1.4952442425       -0.7391746390       -0.5002466573
 C         -2.7904170022       -1.2974033459       -0.5723452791
 C         -3.9194985902       -0.3518947634       -0.5119503838
 C         -3.6710958342        0.9654079101       -0.3863012810
 C         -4.6071622117        2.1554683215       -0.3394520599
 C         -6.1041992865        1.9654393774       -0.1098308082
 C         -6.4780878333        1.4518333951        1.2802619376
 H         -7.5530825413        1.2591695522        1.2959024793
 H         -6.2711359964        2.2395132432        2.0091885073
 C         -5.7416567993        0.1957951097        1.7391959774
 H         -6.0988722149       -0.0535073656        2.7421802023
 H         -4.6734352946        0.4066127213        1.8218581550
 C         -5.9378552360       -1.0359476556        0.8574909054
 H         -7.0043164718       -1.2361566793        0.7368911614
 H         -5.4954440434       -1.8886245579        1.3799898230
 C         -5.2912606173       -0.9623759984       -0.5367355371
 H         -5.9324171092       -0.4405950132       -1.2432767181
 H         -5.1645244985       -1.9853431558       -0.9033829831
 H         -6.5255498345        1.3246786412       -0.8788633575
 H         -6.5647326178        2.9497235744       -0.2315278515
 H         -4.4680728660        2.6791893185       -1.2916333513
 H         -4.2078488511        2.8164598878        0.4362675208
 O         -2.3985405102        1.4569775827       -0.3243180651
 C         -1.2852179476        0.6326356952       -0.3689128071
 O         -0.1979459382        1.2298643688       -0.2830412918
 O         -3.0001471291       -2.5360769174       -0.6837924942
 C         -0.2851698146       -1.6521966362       -0.5574334691
 C          0.5789409849       -1.4387046079        0.6600003831
 C         -0.0141328680       -1.4395418940        1.9205288390
 C          0.7395046350       -1.2175016746        3.0559374193
 C          2.0997371079       -0.9788647479        2.9605307362
 C          2.7040468241       -0.9927891278        1.7099506571
 C          1.9465848980       -1.2366102589        0.5717251062
 H          2.4453545142       -1.2670521826       -0.3812765265
 N          4.0812667713       -0.7755014538        1.5826713946
 S          4.7345413274       -0.1056874761        0.2020870621
 O          4.7841830967       -1.0908404664       -0.8497148237
 O          6.0170831674        0.4069833305        0.6368898234
 C          3.6757564865        1.2482721345       -0.2720875959
 C          3.1901259424        1.3093991376       -1.5613789580
 C          2.3897607701        2.3783886756       -1.9272399841
 C          2.0875590624        3.3619100606       -1.0004019705
 C          2.5848427654        3.2877681706        0.2905029001
 C          3.3886715634        2.2232804396        0.6611356823
 H          3.7928256063        2.1425939631        1.6574310090
 H          2.3410483662        4.0527569075        1.0102845515
 H          1.4537269019        4.1869609670       -1.2844842314
 H          1.9953021704        2.4351873182       -2.9296571886
 H          3.4425784057        0.5182469050       -2.2502991114
 H          4.5526056186       -0.4690008048        2.4200721810
 H          2.6880175034       -0.7893827024        3.8451821066
 H          0.2638622436       -1.2184658554        4.0252569008
 H         -1.0796374548       -1.6098824181        1.9958564732
 H         -0.6830970320       -2.6774981037       -0.5295060454
 C          0.4576580511       -1.4494611537       -1.8613110063
 C          1.2687474602       -2.5623882304       -2.4523400403
 C         -0.0203198172       -2.1502313235       -3.0959981126
 H          0.0166453817       -1.6216462345       -4.0366879090
 H         -0.8741221444       -2.8044587547       -2.9961749267
 H          2.1986059765       -2.3203245591       -2.9455641721
 H          1.2919338977       -3.5007627099       -1.9188479857
 H          0.8244950917       -0.4344873572       -1.9717961909
