  62
        -98.93313492
 C         -2.4009130558       -1.0704802463        0.3467128675
 C         -2.6102086779        0.1545181558        1.0275839630
 C         -3.8581523148        0.8881410233        0.7429627876
 C         -4.7347880979        0.3531358833       -0.1268387133
 C         -6.0449247643        0.9214569634       -0.6037986370
 C         -5.8620314938        2.0517963903       -1.6292264737
 C         -4.7783648208        3.0680270798       -1.2787891605
 H         -4.6748252907        3.7489433191       -2.1277556979
 H         -3.8244249011        2.5500509790       -1.1620773109
 C         -5.0538785927        3.9108854499       -0.0358000400
 H         -5.9918703952        4.4538236528       -0.1715540132
 H         -4.2507892472        4.6484969356        0.0397873646
 C         -5.1216001524        3.1483090004        1.2891479251
 H         -6.0732480598        2.6355986748        1.3997475529
 H         -5.0724882853        3.8884032522        2.0932777714
 C         -3.9703310216        2.1752274596        1.5241474792
 H         -3.9738352597        1.8782203802        2.5801095560
 H         -3.0190503068        2.7004573757        1.3790389376
 H         -6.8179742067        2.5634163456       -1.7525196520
 H         -5.5947842950        1.5984836830       -2.5868037820
 H         -6.6358566164        1.2577366226        0.2428866957
 H         -6.5850418550        0.1018056997       -1.0825564733
 O         -4.5000256577       -0.8356253906       -0.7483643940
 C         -3.3479551769       -1.5732636397       -0.5451142846
 O         -3.3130007898       -2.6313063102       -1.2027148787
 O         -1.7830475973        0.6282849536        1.8547298881
 C         -1.1033256408       -1.8065568157        0.6332070656
 C         -0.1035759974       -1.5935195614       -0.4788712499
 C         -0.2383853058       -2.2170616913       -1.7154733426
 C          0.7031125018       -2.0117912906       -2.7070949342
 C          1.8012450418       -1.2003142357       -2.4831137719
 C          1.9381512237       -0.5624437490       -1.2557554107
 C          0.9837505492       -0.7575267605       -0.2670567982
 H          1.0982166219       -0.2488036540        0.6796345954
 N          3.0271185004        0.2882855207       -1.0080102566
 S          3.6797378621        0.3220019648        0.5493134831
 O          3.7467904738       -1.0191275327        1.0846894893
 O          2.9601641938        1.2911717924        1.3367096057
 C          5.3205485276        0.9282998569        0.2011898462
 C          6.3491245146        0.0232798676        0.0177862728
 C          7.6158021402        0.4996495988       -0.2816474815
 C          7.8308855976        1.8650607618       -0.3944688207
 C          6.7890145286        2.7611745946       -0.2063754462
 C          5.5201690257        2.2916848575        0.0940516950
 H          4.6820136367        2.9489867792        0.2579677871
 H          6.9605463842        3.8220894478       -0.2914293659
 H          8.8174560810        2.2335462946       -0.6271018458
 H          8.4283973624       -0.1942391040       -0.4246103380
 H          6.1370748519       -1.0283661317        0.1252402817
 H          3.7450965881        0.2252501295       -1.7168428258
 H          2.5420561036       -1.0534481452       -3.2544987920
 H          0.5865353543       -2.5001954986       -3.6628563938
 H         -1.0962750930       -2.8452549643       -1.8964341965
 H         -0.6957024130       -1.3270246956        1.5343047340
 C         -1.2972200447       -3.2818692285        0.9240081126
 C         -0.1890361020       -4.0319031155        1.5982176401
 C         -1.4553837744       -3.7347418188        2.3427157006
 H         -2.1349730372       -4.5475089383        2.5506823574
 H         -1.4275542549       -2.9796450897        3.1151502062
 H          0.0026089407       -5.0499384434        1.2958505406
 H          0.6997968106       -3.4766692321        1.8615274429
 H         -1.8737705744       -3.8011204849        0.1699168154
