  62
        -98.94132135
 C          1.7855441431        0.6668176344       -0.0866693521
 C          2.9564425921        1.1282122791        0.5719211068
 C          4.2370134882        0.6923814114        0.0060045819
 C          4.2489364119       -0.1121291356       -1.0716591570
 C          5.4722227164       -0.6252301956       -1.7815134816
 C          6.0830384109       -1.8810160673       -1.1447699589
 C          6.8094379996       -1.6505262292        0.1810619915
 H          7.3705722630       -2.5609643703        0.4009750910
 H          7.5331443374       -0.8435059348        0.0620493096
 C          5.8828258572       -1.3438684139        1.3659728115
 H          4.8613105990       -1.6395616372        1.1152503386
 H          6.1852164403       -1.9418337126        2.2286794489
 C          5.8811194110        0.1197229677        1.8076067398
 H          6.8691684515        0.3888525267        2.1875558358
 H          5.1644396153        0.2299447090        2.6253308097
 C          5.4955629912        1.1125764171        0.7032705527
 H          6.3110493090        1.2142229722       -0.0125698573
 H          5.3118294094        2.0852207714        1.1662389784
 H          6.7988873195       -2.2932104366       -1.8597680782
 H          5.2918579519       -2.6211236623       -1.0033084516
 H          5.1607015989       -0.8723408727       -2.7988005845
 H          6.2249483852        0.1622695264       -1.8302720405
 O          3.1086262508       -0.5475297207       -1.6659174398
 C          1.8517129294       -0.1925064581       -1.1852126173
 O          0.9158354577       -0.7010783983       -1.8292722356
 O          2.9306720798        1.8735444404        1.5864004554
 C          0.4522497302        1.0949255109        0.5024622324
 C         -0.4345979663       -0.1009106970        0.7269635865
 C         -0.2591737223       -0.8911813585        1.8584443570
 C         -1.0635767842       -1.9930284310        2.0873147094
 C         -2.0578258012       -2.3340473887        1.1864648159
 C         -2.2272773672       -1.5609600230        0.0475810425
 C         -1.4311771470       -0.4463881127       -0.1724225732
 H         -1.5695991158        0.1410996546       -1.0667994817
 N         -3.2627299638       -1.8935428350       -0.8620955790
 S         -4.7793853420       -1.4161772016       -0.3342658775
 O         -5.1142548831       -2.1714273871        0.8456076114
 O         -5.6678488565       -1.5599401514       -1.4650963306
 C         -4.5736818724        0.3072756353        0.0789048489
 C         -4.1216221441        0.6428327966        1.3395280926
 C         -3.8545867689        1.9727472498        1.6223093288
 C         -4.0388492839        2.9378025569        0.6437766122
 C         -4.4959315193        2.5847251869       -0.6168815464
 C         -4.7598361995        1.2558047259       -0.9067987323
 H         -5.1158616266        0.9381614530       -1.8739316867
 H         -4.6398489363        3.3385693167       -1.3743374538
 H         -3.8239695519        3.9716314713        0.8653403829
 H         -3.4949548880        2.2496757356        2.6003801325
 H         -3.9902905717       -0.1364562328        2.0723860416
 H         -3.0987122287       -1.5167954652       -1.7857952799
 H         -2.7076165245       -3.1782203159        1.3511817748
 H         -0.9165912353       -2.5914594099        2.9736726909
 H          0.5200975471       -0.6309892186        2.5615300958
 H          0.7176613124        1.5116434529        1.4873038498
 C         -0.2610904733        2.2045677457       -0.2568042064
 C          0.5120446364        3.3435484496       -0.8484588585
 C         -0.1871461536        2.3672241797       -1.7441324361
 H         -1.0765838567        2.6951611181       -2.2625890356
 H          0.4078287809        1.6633645797       -2.3046465189
 H          0.1119116379        4.3419286516       -0.7596020042
 H          1.5896425848        3.2958341644       -0.7873600424
 H         -1.2118953658        2.4522428016        0.2062270405
