  62
        -98.94612626
 C         -1.5219832529       -1.0946276080        0.1905134497
 C         -2.5416395719       -0.6175665217        1.0508985002
 C         -3.0572708963        0.7239182452        0.7608450732
 C         -2.5038737072        1.4505785167       -0.2266228710
 C         -2.8940783809        2.8489223064       -0.6221987687
 C         -4.0949287782        2.9182469476       -1.5759224844
 C         -5.4493031160        2.6002546186       -0.9408889207
 H         -5.5830806972        3.2132014752       -0.0490304600
 H         -6.2169028256        2.8963293720       -1.6585770638
 C         -5.6504531101        1.1204435230       -0.5857234747
 H         -6.6371798881        0.7953732774       -0.9228552174
 H         -4.9140141753        0.5153847946       -1.1196711492
 C         -5.5569250544        0.8085613662        0.9079930900
 H         -6.3703495056        1.3081911988        1.4385486907
 H         -5.6793523087       -0.2693495760        1.0421579537
 C         -4.2276463650        1.2177869532        1.5565013272
 H         -4.1716995131        0.7601386280        2.5474907822
 H         -4.1801259567        2.3008605755        1.6704709887
 H         -4.1343356204        3.9342605147       -1.9752944727
 H         -3.9158192385        2.2386751229       -2.4122579508
 H         -3.1016554977        3.4361544473        0.2730371348
 H         -2.0253532327        3.2814386476       -1.1236455397
 O         -1.4819133478        0.9851755459       -0.9888985324
 C         -0.9672757528       -0.2895493589       -0.8046245056
 O         -0.0383461522       -0.5726406409       -1.5854584820
 O         -2.9950144757       -1.2824399980        2.0219183750
 C         -0.9573787802       -2.4780958989        0.4598879838
 C          0.5499455687       -2.4252307709        0.4497016959
 C          1.3549592800       -3.2832491310       -0.2880049547
 C          2.7332598847       -3.1535172156       -0.2577364034
 C          3.3348035114       -2.1537992151        0.4835581351
 C          2.5367163173       -1.2895785318        1.2242490449
 C          1.1623775879       -1.4492845215        1.2275739542
 H          0.5576317692       -0.7668164363        1.8081258420
 N          3.0899535196       -0.2222663783        1.9669831581
 S          2.7522659608        1.3166363346        1.3878159756
 O          3.4362190461        2.2193285949        2.2901036101
 O          1.3282896460        1.4935098685        1.2667726505
 C          3.5541813133        1.3622907924       -0.2056543931
 C          4.8143894436        1.9242759301       -0.2897036368
 C          5.4842144601        1.8950771223       -1.5015885162
 C          4.8894855267        1.2953752092       -2.6018902788
 C          3.6269020844        0.7329105095       -2.4988943526
 C          2.9463943347        0.7622077061       -1.2902370798
 H          1.9599511965        0.3344255595       -1.1931737799
 H          3.1575978745        0.2647410676       -3.3492820458
 H          5.4113431102        1.2668607502       -3.5454462506
 H          6.4650526903        2.3350456920       -1.5834603269
 H          5.2340787832        2.3798241277        0.5927734066
 H          4.0890061078       -0.3027687119        2.1046941689
 H          4.4079289888       -2.0342407553        0.4851621958
 H          3.3451056417       -3.8272561665       -0.8378026925
 H          0.9046134158       -4.0427261754       -0.9055711622
 H         -1.2793919865       -2.7056943011        1.4908072844
 C         -1.5348346851       -3.5721565068       -0.4265081599
 C         -2.8700218395       -3.4081243367       -1.0873183031
 C         -1.6219228750       -3.4237950686       -1.9150542005
 H         -1.4277564979       -4.2904794802       -2.5297674382
 H         -1.2751118908       -2.4959476024       -2.3418509617
 H         -3.5294071698       -4.2621597216       -1.1284562150
 H         -3.3836210980       -2.4670271424       -0.9523534896
 H         -1.3110232755       -4.5642894955       -0.0468761274
