  62
        -98.94502598
 C          0.8552338750        1.0749121880        0.7580984600
 C          1.1597245198        0.5172977042       -0.5087152676
 C          2.1172007786       -0.5985716970       -0.4916398006
 C          2.5095380253       -1.1288118041        0.6788487315
 C          3.4770118724       -2.2671451529        0.8569448544
 C          4.9489021348       -1.8302419359        0.8441480956
 C          5.4948938352       -1.4179421745       -0.5238346605
 H          6.5800091986       -1.3468594692       -0.4257627383
 H          5.2852936800       -2.2042302347       -1.2495031695
 C          4.9588319198       -0.0768427594       -1.0448696700
 H          5.7877761098        0.5216884588       -1.4292787293
 H          4.5177056022        0.4854885959       -0.2184163646
 C          3.9282844434       -0.1996680282       -2.1677869867
 H          3.5904694419        0.8053080740       -2.4336216038
 H          4.3996997671       -0.6386355944       -3.0496855056
 C          2.6959519039       -1.0383362108       -1.8018995781
 H          1.9331963520       -0.8867327175       -2.5686384494
 H          2.9631284278       -2.0933130619       -1.7685418264
 H          5.5423630430       -2.6716555272        1.2094252111
 H          5.0745632138       -1.0057033511        1.5500760858
 H          3.2609906358       -2.7135457708        1.8301454291
 H          3.3136632396       -3.0171477833        0.0830049827
 O          2.0372127407       -0.6833595545        1.8752041280
 C          1.2510322226        0.4556541175        1.9456762287
 O          0.9604549274        0.8028570265        3.1091741306
 H         -1.9703228181        0.6399597423        1.0984083888
 C         -2.1194345349        1.3059008747        0.2600899632
 C         -1.1722815685        2.2868971306       -0.0063686993
 C         -1.3866181184        3.1499285465       -1.0728145357
 C         -2.5192354690        3.0207397324       -1.8565975664
 C         -3.4541936959        2.0355732075       -1.5976310532
 C         -3.2504934959        1.1706682918       -0.5278441170
 N         -4.1891526599        0.1744142158       -0.2282799166
 S         -3.7728731575       -1.1986531117        0.6079440557
 O         -4.8510641668       -2.1229541146        0.3230964006
 O         -3.5681041666       -0.8956781902        2.0030878163
 C         -2.2703271517       -1.8360875151       -0.1126111565
 C         -2.1490523056       -1.8929070426       -1.4861458726
 C         -1.0247475557       -2.4870398221       -2.0350888982
 C         -0.0535917917       -3.0254754142       -1.2068358706
 C         -0.1851077177       -2.9539589606        0.1706300806
 C         -1.3012697698       -2.3495317744        0.7246776803
 H         -1.4358035689       -2.2640547118        1.7921447205
 H          0.5738380950       -3.3650566713        0.8170758469
 H          0.8112885946       -3.5039885160       -1.6370415719
 H         -0.9118565092       -2.5324920547       -3.1061662846
 H         -2.9247527915       -1.4799668156       -2.1099395802
 H         -4.9070040631        0.0171550767       -0.9188805010
 H         -4.3344365608        1.9332659466       -2.2134014498
 H         -2.6723869356        3.6919467697       -2.6879170945
 H         -0.6547117739        3.9052223390       -1.3063433116
 C          0.0349841851        2.3453999261        0.8943477686
 H         -0.3274685889        2.3432048383        1.9360075685
 C          0.8538437694        3.6170232792        0.7189175796
 C          2.2899044136        3.6697365158        1.1455886770
 C          1.9372682704        3.7408660795       -0.3081429634
 H          2.0553286368        4.6863947502       -0.8167788177
 H          2.1392737576        2.8826185539       -0.9290100931
 H          2.7314198762        2.7588751206        1.5241989319
 H          2.6474922530        4.5623726946        1.6365001410
 H          0.2634785989        4.5066089797        0.9162046056
 O          0.6870127287        0.9254842783       -1.5983221577
