  62
        -98.93710454
 C          2.5795113923       -1.3263506726        0.1693918863
 C          2.1888624617       -0.0719446908        0.7020033368
 C          3.2782239680        0.8915030910        0.9365616937
 C          4.5465060168        0.5448344164        0.6559576088
 C          5.7390908294        1.4434603171        0.8046082196
 C          6.0221742480        2.2083224504       -0.4957589536
 C          4.7901148623        2.8893965379       -1.0919567789
 H          4.0797209147        2.1252240401       -1.4166513828
 H          5.1150333649        3.4247695826       -1.9867772488
 C          4.0820936575        3.8651437329       -0.1416939310
 H          3.8427077593        4.7775733290       -0.6918957172
 H          4.7536945313        4.1436936086        0.6712604691
 C          2.7686143607        3.3421442041        0.4433886769
 H          2.1259581338        2.9762411181       -0.3622793078
 H          2.2499444383        4.1807244158        0.9160408266
 C          2.8997998739        2.2340828367        1.4960160105
 H          1.9171574814        2.1008886139        1.9581323774
 H          3.6055653523        2.5431496477        2.2698888389
 H          6.4141705244        1.5043849657       -1.2334746352
 H          6.7922221583        2.9557018187       -0.2963751250
 H          6.6057051253        0.8266433941        1.0485270481
 H          5.5617260158        2.1429826696        1.6190470031
 O          4.8836225851       -0.6683595497        0.1494548770
 C          3.9143029087       -1.6164683961       -0.1299235351
 O          4.3603960466       -2.6658239406       -0.6351084055
 O          1.0034486384        0.2430961785        0.9828034360
 C          1.5709361465       -2.4096520139       -0.1791504525
 C          0.4382816100       -1.8063802141       -0.9716508947
 C          0.6716220151       -1.4183571735       -2.2877718532
 C         -0.3273697751       -0.8251047709       -3.0359665162
 C         -1.5789268252       -0.6052661482       -2.4877161350
 C         -1.8174329054       -0.9776738419       -1.1721381094
 C         -0.8137909935       -1.5821776237       -0.4246197700
 H         -1.0005161867       -1.8452712019        0.6048127051
 N         -3.0873269525       -0.7705999843       -0.6022002875
 S         -3.9118544046        0.6507937195       -0.9906850591
 O         -4.5372381044        0.4734231097       -2.2786795703
 O         -3.0425701570        1.7990798064       -0.8675708281
 C         -5.1579479286        0.6692139765        0.2832389258
 C         -6.3568828976        0.0196190481        0.0596227399
 C         -7.3124815406        0.0136433691        1.0633227049
 C         -7.0543549656        0.6527109039        2.2668182611
 C         -5.8463759146        1.3012227434        2.4763730654
 C         -4.8859191407        1.3102603522        1.4771517118
 H         -3.9366697849        1.8092999348        1.5935533013
 H         -5.6490744464        1.7991395087        3.4121501852
 H         -7.7996855797        0.6481141964        3.0463958210
 H         -8.2536541860       -0.4873328867        0.9040276989
 H         -6.5153001420       -0.4550784016       -0.8945148887
 H         -3.0735265705       -0.9120999526        0.3989149726
 H         -2.3637811661       -0.1324965626       -3.0559985381
 H         -0.1318136819       -0.5259702576       -4.0551856698
 H          1.6536549708       -1.5774530848       -2.7134263544
 H          2.1167288302       -3.0974240693       -0.8450427466
 C          1.0991306664       -3.2417490755        1.0038137066
 C          2.0533855867       -3.6138062088        2.0983074467
 C          0.9165795428       -2.6803412488        2.3805181392
 H          0.0918587311       -3.0474594167        2.9743025092
 H          1.1323156346       -1.6348996778        2.5325399462
 H          2.0123145658       -4.6152158267        2.4993672459
 H          3.0519348782       -3.2044322856        2.0460508094
 H          0.3966462875       -4.0102298652        0.6950337920
