  62
        -98.93118930
 C         -2.4332416118       -0.9523569833        0.6318204664
 C         -3.4953952820       -0.8705896537       -0.2999410243
 C         -4.6764482911       -0.0934573410        0.1220928855
 C         -4.6857207959        0.5091680433        1.3223813192
 C         -5.7870002328        1.3129707437        1.9676565506
 C         -6.5561964807        2.3047347570        1.0849443256
 C         -5.7232666141        2.9710893511       -0.0197029312
 H         -5.8635184693        4.0523718106        0.0334219497
 H         -4.6618501444        2.7725557627        0.1396047670
 C         -6.1212538448        2.5146649090       -1.4253551381
 H         -5.7775698979        3.2598993931       -2.1468157101
 H         -7.2111750151        2.4785149693       -1.4870423923
 C         -5.5505849378        1.1660858701       -1.8618608706
 H         -4.4721178266        1.2541063518       -2.0197170656
 H         -5.9945963411        0.9091404857       -2.8266752333
 C         -5.7861896828        0.0019534226       -0.8855944759
 H         -6.7587735735        0.0800428983       -0.4060877927
 H         -5.7541957730       -0.9283239472       -1.4590635949
 H         -6.9582348214        3.0710215798        1.7499735147
 H         -7.4107562784        1.8040088909        0.6320400325
 H         -5.3016932937        1.8515503247        2.7852718569
 H         -6.4959866639        0.6133966093        2.4202103080
 O         -3.6283401942        0.4278281032        2.1792407623
 C         -2.4943354970       -0.2945281761        1.8631909200
 O         -1.6179089696       -0.2826682082        2.7519327325
 O         -3.4939065981       -1.4222925894       -1.4314564092
 C         -1.1543325257       -1.7353140179        0.3784479917
 C         -0.1906293242       -0.9396046168       -0.4702938047
 C         -0.4677101303       -0.6370390919       -1.7991320862
 C          0.4366653581        0.0874096493       -2.5543409637
 C          1.6303928241        0.5225595288       -2.0062565327
 C          1.9164581042        0.2267664521       -0.6803833736
 C          1.0085152400       -0.5046604143        0.0755034713
 H          1.2280455399       -0.7240008335        1.1121498522
 N          3.1194410139        0.6817192676       -0.1104716974
 S          4.5211003521        0.5031684858       -1.0391998391
 O          4.6176553451        1.6257260346       -1.9383144674
 O          4.5401710669       -0.8036293391       -1.6568384361
 C          5.7843901289        0.6177387146        0.2120401250
 C          6.2683143859       -0.5431851367        0.7851442492
 C          7.2347552567       -0.4500644161        1.7740921935
 C          7.6961186486        0.7955725677        2.1727026729
 C          7.2008358417        1.9516297447        1.5879295202
 C          6.2349055949        1.8658191828        0.5978756289
 H          5.8281872512        2.7357478069        0.1092445700
 H          7.5646369549        2.9175929597        1.8989072691
 H          8.4492264783        0.8651433420        2.9416383963
 H          7.6242782903       -1.3470514188        2.2280418940
 H          5.8888469276       -1.4905655957        0.4367806997
 H          3.2539759245        0.3310024476        0.8280373071
 H          2.3460443368        1.0813128002       -2.5880965989
 H          0.2104109186        0.3167741541       -3.5851215418
 H         -1.4026207968       -0.9624700897       -2.2286103794
 H         -0.6940652700       -1.8673455454        1.3670833345
 C         -1.4000491315       -3.1079382445       -0.2172121798
 C         -0.3436395396       -4.1592962455       -0.0684332319
 C         -1.6274094327       -4.2721418233        0.6969544201
 H         -2.3413674186       -5.0261876899        0.4018139653
 H         -1.6057091811       -4.0845745458        1.7608996510
 H         -0.1721787357       -4.8366651465       -0.8908098229
 H          0.5507932251       -3.8962849990        0.4762744722
 H         -1.9621779277       -3.0845922463       -1.1407025581
