  62
        -98.93472152
 C         -2.5506887466       -0.5556963038        0.3908775826
 C         -2.8179141307        0.8331810876        0.2767204955
 C         -4.0778398375        1.2076440128       -0.3760760733
 C         -4.8846317237        0.2381443696       -0.8439105910
 C         -6.2212600933        0.4690049635       -1.4860691914
 C         -7.3497855618        0.4446254068       -0.4456710747
 C         -7.0806600575        1.3202689191        0.7781333634
 H         -7.9554521998        1.2484970746        1.4280601876
 H         -6.2341444458        0.9077599613        1.3318642852
 C         -6.8031362321        2.7950619262        0.4549566832
 H         -7.1532084123        3.0259906860       -0.5517416860
 H         -7.3729256401        3.4184408444        1.1472411367
 C         -5.3361674988        3.2082272077        0.5879226028
 H         -4.9538279290        2.8940866220        1.5623847833
 H         -5.2858812019        4.2997846294        0.5531915587
 C         -4.3913015392        2.6726110899       -0.4952692492
 H         -4.7974848407        2.9000437788       -1.4830256428
 H         -3.4345953690        3.1922954241       -0.3890866422
 H         -8.2730260140        0.7672394517       -0.9304299559
 H         -7.4856062596       -0.5850133945       -0.1067318355
 H         -6.2088363039        1.4270740130       -2.0022358734
 H         -6.3939474001       -0.3243167328       -2.2152702267
 O         -4.5874138661       -1.0802937401       -0.7403093458
 C         -3.4197178913       -1.5187022651       -0.1239174304
 O         -3.3003683287       -2.7568427482       -0.1107462614
 H          1.1305713567        0.3230779383        1.1208883801
 C          1.0381263680       -0.3275223387        0.2616354067
 C         -0.1327671108       -1.0480080543        0.0792239982
 C         -0.2467663210       -1.8650881045       -1.0412211721
 C          0.7928388702       -1.9559019286       -1.9488242191
 C          1.9577525573       -1.2311713044       -1.7666155044
 C          2.0791143026       -0.4065750458       -0.6563395284
 N          3.2445759231        0.3605389674       -0.4781922251
 S          4.7306389186       -0.4013060884       -0.7397378188
 O          4.9693870650       -0.4669831601       -2.1592499107
 O          4.7686302807       -1.6624253220       -0.0330621900
 C          5.8442531486        0.7699892720        0.0092412187
 C          6.2581304411        0.5727021340        1.3129591452
 C          7.1039859354        1.5035208405        1.8953472136
 C          7.5162524650        2.6107675324        1.1692248102
 C          7.0921717876        2.7947620572       -0.1385411543
 C          6.2475933137        1.8673681232       -0.7275057113
 H          5.9001125771        1.9641776015       -1.7427818781
 H          7.4169094752        3.6558392802       -0.7000591928
 H          8.1747069334        3.3334330841        1.6247158264
 H          7.4378594424        1.3619207000        2.9106519860
 H          5.9206893535       -0.3074624259        1.8366211302
 H          3.2436916259        0.8521492807        0.4054462077
 H          2.7733146307       -1.2972026882       -2.4683774593
 H          0.6952681385       -2.5981403730       -2.8116265229
 H         -1.1553047315       -2.4295619638       -1.1891756858
 C         -1.2532273117       -0.9354965140        1.0819681832
 H         -1.0246105736       -0.0750810823        1.7310815819
 C         -1.3775449629       -2.1561687711        1.9825565928
 C         -0.7249050910       -3.4728307172        1.7014887391
 C         -0.2025937890       -2.6024103984        2.8022780893
 H         -0.3666869483       -2.9018947566        3.8262029433
 H          0.7396264554       -2.1027374081        2.6317545211
 H         -0.1308439682       -3.5720525491        0.8067431426
 H         -1.2750801495       -4.3656052623        1.9563642824
 H         -2.3488744040       -2.2022236021        2.4645483980
 O         -2.0351413028        1.7200700450        0.7129559259
