  62
        -98.93340516
 C          1.8557462936        1.3926673213        0.3896357770
 C          2.3968449005        0.6825811097       -0.7101467547
 C          3.6462854354       -0.0559764088       -0.4499228755
 C          4.1777024806       -0.0435708485        0.7850442655
 C          5.3998525552       -0.8010470468        1.2202753976
 C          5.0507129061       -2.2874654800        1.4361592436
 C          5.7367179726       -3.2439534595        0.4605656042
 H          6.7822742944       -3.3599997009        0.7536048417
 H          5.2552714789       -4.2186866393        0.5652127102
 C          5.7064877192       -2.8285691731       -1.0135190462
 H          6.4760383994       -2.0777870808       -1.1992027472
 H          5.9838378641       -3.7089092313       -1.5972141572
 C          4.3651294849       -2.2957577669       -1.5342532196
 H          4.2172897653       -2.6792873223       -2.5459116964
 H          3.5393030608       -2.6734017713       -0.9305184093
 C          4.2742781939       -0.7606664987       -1.6205305973
 H          3.6436826313       -0.4981613896       -2.4753222530
 H          5.2693598958       -0.3463581980       -1.8056366270
 H          5.3222258111       -2.5818714247        2.4511101384
 H          3.9672845303       -2.4006723217        1.3561963503
 H          5.7445177947       -0.3531718725        2.1526700989
 H          6.1829133027       -0.6962956819        0.4726490233
 O          3.6020216365        0.6111248049        1.8273910207
 C          2.4301232124        1.3309383413        1.6611579802
 O          1.9989793670        1.8543578596        2.7081734537
 O          1.8777354178        0.6599050793       -1.8550874250
 C          0.5744028112        2.2002331635        0.2665213683
 C         -0.4699705106        1.3993740185       -0.4722770099
 C         -1.0923118825        1.8247795884       -1.6375534577
 C         -2.0402279741        1.0276888517       -2.2564288048
 C         -2.3922959213       -0.1998654712       -1.7279606358
 C         -1.7828971205       -0.6304506940       -0.5557098173
 C         -0.8401623567        0.1723455893        0.0665120374
 H         -0.3615001199       -0.1664818191        0.9779339132
 N         -2.1414194447       -1.8723426080       -0.0034422159
 S         -3.7688898319       -2.2516811346        0.0808780303
 O         -3.8861650047       -3.1656908998        1.1957341246
 O         -4.2182982710       -2.7543347108       -1.1933225348
 C         -4.5891734617       -0.7095565581        0.4448016203
 C         -4.2656863603       -0.0645416381        1.6222046199
 C         -4.8632534000        1.1524265390        1.9060798277
 C         -5.7693509673        1.7014588788        1.0113743908
 C         -6.0876681299        1.0390666466       -0.1637616165
 C         -5.4916117095       -0.1779834401       -0.4534888284
 H         -5.7085469476       -0.7255678411       -1.3560655889
 H         -6.7941770498        1.4673496834       -0.8562393390
 H         -6.2296891845        2.6510784804        1.2339404289
 H         -4.6167585550        1.6685320828        2.8201889876
 H         -3.5614687722       -0.5206243874        2.2998376331
 H         -1.6679088103       -2.0915063704        0.8601125014
 H         -3.1136664020       -0.8394713956       -2.2100926323
 H         -2.5064595782        1.3647872735       -3.1695215335
 H         -0.8152690470        2.7675030367       -2.0789916229
 H          0.2229032739        2.3273490680        1.3040010143
 C          0.7708209608        3.6012331534       -0.2934877437
 C          2.0695962809        4.3282223077       -0.1158078448
 C          1.6422775561        3.8800150326       -1.4795785145
 H          1.3200790649        4.6312972783       -2.1858650330
 H          2.1521431837        3.0452239058       -1.9329574365
 H          2.0394341802        5.3825003676        0.1151204550
 H          2.8780950913        3.7994565437        0.3683920435
 H         -0.1284833951        4.2018491029       -0.1984772039
