  62
        -98.94680135
 C         -1.7501211184       -1.3870648916       -0.0509835393
 C         -2.8947350000       -0.7531224643        0.4922087645
 C         -3.3451119340        0.4693228801       -0.1837679617
 C         -2.6541662774        0.9266675100       -1.2435103905
 C         -2.9706595258        2.1859889214       -1.9960418240
 C         -2.1976248322        3.3826518169       -1.4256987743
 C         -2.3043669901        3.5235461490        0.0928395379
 H         -1.7777676415        2.6881331175        0.5617473049
 H         -1.7587767581        4.4282560821        0.3721181172
 C         -3.7407780163        3.6062089886        0.6285246955
 H         -3.7864817585        4.4004119420        1.3768166491
 H         -4.4208650983        3.8814966230       -0.1787781122
 C         -4.2460704686        2.3302881502        1.3046350246
 H         -5.1647512077        2.5729187002        1.8458417140
 H         -3.5108996064        1.9938774267        2.0406997646
 C         -4.5615976051        1.1574239386        0.3679401478
 H         -5.2145311372        1.4959120896       -0.4392453479
 H         -5.0964464496        0.4013944824        0.9505338872
 H         -2.5646350156        4.2920711066       -1.9061302788
 H         -1.1400106480        3.2643927021       -1.6738012535
 H         -2.6835919388        2.0448202740       -3.0396490907
 H         -4.0415536205        2.3743125426       -1.9454173298
 O         -1.5559081044        0.3013332296       -1.7314870313
 C         -1.0520350516       -0.8406927537       -1.1283588322
 O         -0.0055831753       -1.2661598687       -1.6541762903
 O         -3.5093911741       -1.1898682779        1.5037104912
 C         -1.2124194535       -2.6134130110        0.6663481204
 C          0.2653306721       -2.4397860813        0.9158631041
 C          1.2280725433       -3.3935504521        0.6132408296
 C          2.5683438072       -3.1385309043        0.8516703298
 C          2.9789506845       -1.9221116837        1.3645207406
 C          2.0219447339       -0.9612360911        1.6697647720
 C          0.6802014563       -1.2383133940        1.4783547905
 H         -0.0501677798       -0.4805087177        1.7242303942
 N          2.3771917645        0.3203533491        2.1472707255
 S          2.0907899961        1.5837438734        1.0766393098
 O          2.5437173478        2.7749599725        1.7641674752
 O          0.7128342069        1.5710432821        0.6630630563
 C          3.1918821365        1.2373512150       -0.2841020481
 C          2.8294736768        0.3024675927       -1.2327879304
 C          3.7420493859       -0.0225072849       -2.2260465158
 C          4.9885494535        0.5828464434       -2.2525695335
 C          5.3352968037        1.5208684063       -1.2912668599
 C          4.4323214873        1.8475925552       -0.2932479492
 H          4.6553828516        2.5708233146        0.4747208539
 H          6.3041208467        1.9933361765       -1.3142736881
 H          5.6923929818        0.3221773050       -3.0272990212
 H          3.4645767318       -0.7529410750       -2.9690910840
 H          1.8525797653       -0.1557220322       -1.1998498423
 H          3.3346231228        0.3800130311        2.4685057874
 H          4.0263918951       -1.7111105881        1.5203905589
 H          3.3047422946       -3.8900328051        0.6113814312
 H          0.9337870075       -4.3310876771        0.1711269357
 H         -1.7227974410       -2.5980231830        1.6448775827
 C         -1.5705561360       -3.9403991972        0.0139367638
 C         -2.7355041674       -4.0545334377       -0.9221787566
 C         -1.3391141098       -4.2016089360       -1.4433523726
 H         -1.0065234046       -5.1852981339       -1.7410482737
 H         -0.9219720913       -3.3995360707       -2.0310553191
 H         -3.3597696137       -4.9332257195       -0.8581135843
 H         -3.2772619789       -3.1502226194       -1.1598645502
 H         -1.4193035368       -4.7777933267        0.6882749014
