  62
        -98.93744165
 C         -2.4043413336       -1.1164118321       -0.0181120213
 C         -3.3975842251       -0.6387116407        0.8745970415
 C         -4.3995923717        0.3033740179        0.3422780712
 C         -4.3279954122        0.6526093584       -0.9553150842
 C         -5.2023452171        1.6130652772       -1.7169191431
 C         -4.8881888253        3.0831646328       -1.3975711398
 C         -4.7023643066        3.3923172563        0.0854964117
 H         -3.8910924261        2.7782876004        0.4807852088
 H         -4.3889657187        4.4362293629        0.1697016374
 C         -5.9476396090        3.2074314777        0.9494528544
 H         -5.6997206044        3.5599925670        1.9538442989
 H         -6.7489183279        3.8416536202        0.5638476765
 C         -6.4739140350        1.7751676151        1.0675877064
 H         -7.0320113952        1.4857129579        0.1811306672
 H         -7.1835654552        1.7572986158        1.8998560041
 C         -5.4079934559        0.7302722479        1.3814963342
 H         -4.8275767119        1.0580319507        2.2513974323
 H         -5.9068717207       -0.1925438458        1.7012117475
 H         -3.9618640118        3.3502183189       -1.9121677446
 H         -5.6899405110        3.7023079129       -1.8036148761
 H         -5.0083571852        1.4385162033       -2.7776398341
 H         -6.2494012361        1.3923277006       -1.5316888648
 O         -3.3593149990        0.1654566366       -1.7803001421
 C         -2.3836945185       -0.7157557124       -1.3530728163
 O         -1.5880694576       -1.0478092728       -2.2567079253
 O         -3.4518713774       -0.9885449455        2.0842694940
 C         -1.3897587632       -2.0935975100        0.5513176438
 C         -0.0674705416       -1.4249453748        0.8449081069
 C          0.4049139024       -1.3263451705        2.1485116222
 C          1.6268108290       -0.7325067227        2.4124477240
 C          2.3998584834       -0.2226781673        1.3848823695
 C          1.9356758959       -0.3132810113        0.0790758395
 C          0.7135855526       -0.9159233521       -0.1830435115
 H          0.3542568211       -0.9765829469       -1.1998332243
 N          2.7016653773        0.2229577978       -0.9718124222
 S          4.3041421346       -0.2626406124       -1.1048235592
 O          4.6423831694       -0.0913789708       -2.5007749828
 O          4.5042040790       -1.5820094136       -0.5511183118
 C          5.1947230453        0.9423237707       -0.1422031434
 C          5.0814486225        2.2717869678       -0.4988854950
 C          5.7696007001        3.2230685571        0.2370127317
 C          6.5571662025        2.8309052772        1.3093533403
 C          6.6642811059        1.4917382606        1.6519438592
 C          5.9777601319        0.5351447078        0.9201557477
 H          6.0279548028       -0.5169555558        1.1514050789
 H          7.2784868009        1.1888635255        2.4846748773
 H          7.0912176267        3.5737155090        1.8806027487
 H          5.6891455996        4.2653014819       -0.0268776587
 H          4.4630530895        2.5332937968       -1.3414519114
 H          2.2387746610        0.1649620090       -1.8679198488
 H          3.3512644788        0.2429132656        1.5838623314
 H          1.9804676288       -0.6634781738        3.4297894838
 H         -0.1988351433       -1.7109621101        2.9576354256
 H         -1.8174329569       -2.4190616953        1.5091584930
 C         -1.1882277960       -3.3172769525       -0.3219804076
 C         -0.6362135163       -4.5663385822        0.2939862426
 C         -2.0725295192       -4.5109823222       -0.1305571674
 H         -2.3775160523       -5.0703821973       -1.0022175783
 H         -2.8293236999       -4.4536759337        0.6381763422
 H          0.0507485885       -5.1649760093       -0.2844121576
 H         -0.4193424551       -4.5480915330        1.3512799031
 H         -0.8880618973       -3.0808067812       -1.3347458166
