  62
        -98.93685264
 C          1.5868464911        1.3905027188       -0.7059711377
 C          1.4597232405       -0.0142342612       -0.5583447181
 C          2.7241706301       -0.7655469418       -0.4650633580
 C          3.8963120505       -0.1158677923       -0.5625018174
 C          5.2486786001       -0.7547852729       -0.4394973272
 C          5.7429376597       -0.7315236135        1.0136574929
 C          4.7109778892       -1.2318784533        2.0246559225
 H          3.8680969095       -0.5370726030        2.0468950024
 H          5.1799595689       -1.1983682038        3.0105846526
 C          4.1916412187       -2.6507409930        1.7529597819
 H          4.1800759381       -3.2039510633        2.6945331218
 H          4.8743175886       -3.1714328331        1.0804475220
 C          2.7731800088       -2.7107282123        1.1821530815
 H          2.1029137789       -2.1110040821        1.8030579115
 H          2.4319940783       -3.7477697821        1.2361591311
 C          2.6199829194       -2.2526847618       -0.2735508684
 H          1.6132614194       -2.5245889813       -0.6040043988
 H          3.3445726094       -2.7741684119       -0.9018563784
 H          6.0058624301        0.2966019063        1.2735856733
 H          6.6468159394       -1.3398841539        1.0812509230
 H          5.9507837906       -0.1974520630       -1.0619737968
 H          5.1944449098       -1.7803569928       -0.7993552875
 O          3.9796220811        1.2278622978       -0.7397062870
 C          2.8390027314        2.0077272183       -0.7949468572
 O          3.0669936620        3.2282495882       -0.9300335668
 O          0.3704576602       -0.6360034707       -0.5053772987
 C          0.3914255716        2.3380063693       -0.7826615478
 C         -0.4840660288        2.1899555194        0.4361490919
 C         -0.2477044088        3.0448954790        1.5122927622
 C         -0.9752851892        2.9393089789        2.6821576419
 C         -1.9665662097        1.9820777193        2.8065905714
 C         -2.2077422897        1.1188446797        1.7454651711
 C         -1.4700570493        1.2252247797        0.5735053013
 H         -1.6576841294        0.5192200500       -0.2130307989
 N         -3.1735640402        0.1106798201        1.8484216905
 S         -4.0222242300       -0.4041119191        0.5059275201
 O         -4.3219201192        0.6971184512       -0.3807616297
 O         -5.1722229305       -1.0925057688        1.0573882496
 C         -2.9704184003       -1.5935680594       -0.2955206899
 C         -2.9436838999       -1.6409512890       -1.6744222399
 C         -2.1439915601       -2.5861663592       -2.2961581200
 C         -1.3899992807       -3.4615476097       -1.5317971700
 C         -1.4317137111       -3.4022006401       -0.1479765800
 C         -2.2313286809       -2.4626905899        0.4800405301
 H         -2.2770818312       -2.3819475502        1.5533840001
 H         -0.8346983816       -4.0780900705        0.4433689600
 H         -0.7583803609       -4.1883157598       -2.0188134600
 H         -2.1029348698       -2.6261894589       -3.3732240000
 H         -3.5291360494       -0.9268706986       -2.2324808099
 H         -3.7354441504        0.1220247901        2.6860182903
 H         -2.5408602700        1.8974695893        3.7167762112
 H         -0.7740609192        3.6116258086        3.5026343622
 H          0.5270941615        3.7942587186        1.4245606126
 H          0.8437688420        3.3388156791       -0.7111227474
 C         -0.2639195080        2.3027407700       -2.1609188780
 C         -0.9149735184        1.1034338204       -2.7802644685
 C         -1.7417867779        2.2988624907       -2.4153656785
 H         -2.1138272174        2.9222562411       -3.2158031084
 H         -2.4208401982        2.2168707408       -1.5804444987
 H         -0.7202420781        0.9132306507       -3.8266883685
 H         -0.9956714989        0.2056803903       -2.1897303288
 H          0.3237561324        2.9016523199       -2.8532401377
