  62
        -98.93786121
 C          2.5886516028        1.1462623870        0.5022315795
 C          3.4422951699        0.8458199500       -0.5883592932
 C          4.5888187313       -0.0260926426       -0.2803071791
 C          4.7664047010       -0.4767344027        0.9738251207
 C          5.8539310397       -1.4167076200        1.4048468519
 C          5.3966782498       -2.8786823457        1.3038916172
 C          4.7529520804       -3.2333760406       -0.0365573930
 H          4.4995316676       -4.2952352000       -0.0042682602
 H          3.8149257858       -2.6826024808       -0.1383690862
 C          5.6387157279       -2.9560796191       -1.2592741833
 H          6.6790863266       -2.8550635765       -0.9480056035
 H          5.5839722813       -3.8139327512       -1.9328117328
 C          5.2312512225       -1.7255722865       -2.0717297272
 H          4.1651315303       -1.7782997457       -2.3060575084
 H          5.7760746193       -1.7483893707       -3.0192965273
 C          5.5135265090       -0.3684877878       -1.4147773341
 H          6.5549130503       -0.3260253715       -1.0894852217
 H          5.3575225472        0.4052531517       -2.1722288829
 H          6.2606379315       -3.5229553202        1.4769675888
 H          4.6670524175       -3.0684161303        2.0945749129
 H          6.7331943924       -1.2561405486        0.7840130572
 H          6.1079484735       -1.1953955041        2.4428887112
 O          3.9316892176       -0.1591957896        1.9968327324
 C          2.8264689950        0.6447568964        1.7849312235
 O          2.1407626706        0.8505826478        2.8075871095
 H         -1.0123158692        1.7961101406        1.6418957491
 C         -0.9865237108        1.2052950876        0.7356514665
 C          0.1627997915        1.2010541826       -0.0406045933
 C          0.1865484478        0.4213453006       -1.1931888847
 C         -0.9183948117       -0.3277257820       -1.5539977937
 C         -2.0625492198       -0.3223855550       -0.7747743097
 C         -2.0955346844        0.4480040621        0.3792268925
 N         -3.2477544566        0.4424124674        1.1828222633
 S         -4.7319073360        0.7363472382        0.4536255999
 O         -4.5815608640        1.5532882570       -0.7278984215
 O         -5.5688760810        1.2706579699        1.5052532937
 C         -5.3223082624       -0.8828568695        0.0083168534
 C         -5.6336675072       -1.1645609804       -1.3073838313
 C         -6.1000513854       -2.4297048664       -1.6294604636
 C         -6.2471877470       -3.3846960488       -0.6351867945
 C         -5.9330908879       -3.0846595463        0.6821501459
 C         -5.4671341196       -1.8217695674        1.0107967796
 H         -5.2169615425       -1.5475206918        2.0221524699
 H         -6.0495496146       -3.8298097181        1.4525932788
 H         -6.6095350782       -4.3686225244       -0.8881037434
 H         -6.3459668099       -2.6645640443       -2.6526480378
 H         -5.5003805129       -0.3915617026       -2.0475429789
 H         -3.1538820985        0.9749279140        2.0355864988
 H         -2.9241917089       -0.9076571644       -1.0514484400
 H         -0.8881934149       -0.9260429946       -2.4520694707
 H          1.0782591833        0.4155068299       -1.8015333041
 C          1.3548229666        2.0252293912        0.3730485086
 H          1.1620492533        2.3940696468        1.3931035689
 C          1.5802786005        3.2473030671       -0.5075866197
 C          0.8983441689        3.4741177948       -1.8198481158
 C          0.5041330156        4.2865228044       -0.6255909198
 H          0.7811755129        5.3291728776       -0.5872607547
 H         -0.4503149299        4.0668783750       -0.1692146569
 H          1.4722034598        3.9441118318       -2.6038049449
 H          0.2046868453        2.7293955678       -2.1765344943
 H          2.5983470331        3.6150756281       -0.4307343432
 O          3.2760022206        1.2699640784       -1.7597827160
