  62
        -98.94667415
 C          1.1797709237        1.2695659726        0.0822387639
 C          1.5736460080        0.2857570004        1.0225553761
 C          2.4208596959       -0.7967503458        0.5094000212
 C          2.7113673470       -0.8342095702       -0.8038401347
 C          3.6328903342       -1.8273944099       -1.4498049384
 C          5.0760132248       -1.3033714948       -1.4732667732
 C          5.5665041600       -0.7837812215       -0.1216835074
 H          6.6059696643       -0.4743088596       -0.2503041813
 H          4.9971344404        0.1092598347        0.1458878836
 C          5.4747172977       -1.8036740801        1.0221611707
 H          5.3747728732       -2.8103012882        0.6147772406
 H          6.4066326810       -1.7764407235        1.5908289334
 C          4.3400615322       -1.5427441089        2.0148481905
 H          4.3874030169       -0.5066370070        2.3595715258
 H          4.4968016594       -2.1840566963        2.8862966520
 C          2.9226255862       -1.8142972762        1.4943027458
 H          2.8738637865       -2.8187776359        1.0702115220
 H          2.2401443108       -1.7678438192        2.3477115620
 H          5.7298533933       -2.1081642936       -1.8142797702
 H          5.1372153662       -0.4868948409       -2.1964442996
 H          3.5922512772       -2.7681689824       -0.9041080101
 H          3.3019591611       -1.9924539547       -2.4765402932
 O          2.2276107547        0.0672280253       -1.6930527525
 C          1.4524453903        1.1416600644       -1.2802396207
 O          1.0817135494        1.8835200032       -2.2080620024
 H         -1.3134129873        0.7258169936        1.6613077666
 C         -1.7931648456        1.2672364539        0.8557983886
 C         -1.0704318622        2.2430927582        0.1784696751
 C         -1.6861006019        2.9221548036       -0.8641263235
 C         -2.9919464632        2.6248526866       -1.2179660179
 C         -3.7096284259        1.6556795288       -0.5401697845
 C         -3.1004653021        0.9728519400        0.5048987858
 N         -3.8216925947       -0.0338027237        1.1904364245
 S         -4.0954492802       -1.4307833681        0.3094589098
 O         -4.8995126319       -1.1023355822       -0.8388858050
 O         -4.6603565418       -2.3801358935        1.2403962331
 C         -2.4785951184       -1.9774256284       -0.2104266684
 C         -1.8299607019       -2.9448636070        0.5304152537
 C         -0.5608505258       -3.3446586998        0.1459926424
 C          0.0385319137       -2.7640560957       -0.9606943309
 C         -0.6184579381       -1.7808187021       -1.6839584025
 C         -1.8902081999       -1.3805160415       -1.3076631373
 H         -2.4305371230       -0.6242756229       -1.8540378808
 H         -0.1425793137       -1.3164763971       -2.5338099783
 H          1.0234138160       -3.0787403555       -1.2656755443
 H         -0.0429672722       -4.1046395322        0.7085197106
 H         -2.3361095837       -3.3749258805        1.3798805057
 H         -3.3937221048       -0.2876317547        2.0708188096
 H         -4.7201849506        1.4018544037       -0.8158102799
 H         -3.4572754559        3.1564269780       -2.0342344467
 H         -1.1373146301        3.6704018683       -1.4114851030
 C          0.3664902171        2.4528753345        0.5837374710
 H          0.4148408741        2.3913780612        1.6799842331
 C          0.9459140667        3.7802129644        0.1466634853
 C          0.5161416612        5.0320753913        0.8495407802
 C          1.8998467602        4.4949698533        1.0544076015
 H          2.7305048767        5.0255467969        0.6136720484
 H          2.1327845949        4.0317182778        2.0022352128
 H          0.3953134216        5.9343218113        0.2699417094
 H         -0.1922508490        4.9310238783        1.6579185946
 H          1.1405312353        3.8357390486       -0.9169792242
 O          1.2384674692        0.3191323533        2.2379065310
