  62
        -98.93948880
 C          1.5658630699        1.6138886708       -0.2082620214
 C          1.4935513800        0.2377323607       -0.5299605708
 C          2.7806056100       -0.4709047792       -0.6401778310
 C          3.9252736100        0.2018556110       -0.4334219317
 C          5.3394698600       -0.3152501688       -0.5173280121
 C          5.6268712405       -1.6827758186        0.1198181884
 C          4.7724369610       -2.0215833982        1.3503936788
 H          5.4310018213       -2.3360979878        2.1623378487
 H          4.2370075210       -1.1340172881        1.6918506787
 C          3.7738310610       -3.1524635184        1.0910851497
 H          3.4798965914       -3.5864148481        2.0497741299
 H          4.2763646709       -3.9355137086        0.5189441698
 C          2.4914472507       -2.7461545788        0.3649263900
 H          1.9380607107       -3.6574020390        0.1281552306
 H          1.8586358209       -2.1503503987        1.0281580100
 C          2.6909516101       -1.9415147293       -0.9289428704
 H          3.5544791199       -2.2961945694       -1.4863742806
 H          1.7957425999       -2.0699028697       -1.5428678200
 H          5.4983761703       -2.4656827489       -0.6263031413
 H          6.6821332806       -1.6853269683        0.3980958280
 H          5.9513858801        0.4502750014       -0.0343600226
 H          5.6314963196       -0.3426014592       -1.5710522922
 O          3.9459846300        1.5309690711       -0.1263400822
 C          2.7789384299        2.2646558511        0.0031439079
 O          2.9526290899        3.4623171012        0.3092866274
 O          0.4119369600       -0.3718449495       -0.7227510501
 C          0.2841369699        2.4137788507       -0.0561059112
 C         -0.5702591896        1.7599299310        1.0017944394
 C         -0.0447560791        1.6181034616        2.2844708493
 C         -0.7692943687        0.9933933819        3.2801255998
 C         -2.0290187087        0.4841181216        3.0147681905
 C         -2.5639261492        0.6259617711        1.7406105306
 C         -1.8402892097        1.2709100708        0.7458400501
 H         -2.2857369101        1.3760200003       -0.2282800898
 N         -3.8427097893        0.1348779508        1.4474205313
 S         -4.2209119798       -0.4527819098       -0.0673655283
 O         -4.3920134803        0.6368475598       -0.9963564587
 O         -5.3997851096       -1.2639369299        0.1617940625
 C         -2.8811282298       -1.5093915399       -0.5852182484
 C         -2.3904256194       -2.4483595495        0.2987198318
 C         -1.3986607894       -3.3146340695       -0.1280990983
 C         -0.9244546800       -3.2355955200       -1.4272908385
 C         -1.4259172304       -2.2865435104       -2.3017658887
 C         -2.4121438403       -1.4122398803       -1.8777033786
 H         -2.8214290407       -0.6511467606       -2.5234028588
 H         -1.0457962608       -2.2170446407       -3.3088594389
 H         -0.1540470000       -3.9144621000       -1.7591855585
 H         -0.9956489991       -4.0459124392        0.5545452618
 H         -2.7805438290       -2.4942946791        1.3028036619
 H         -4.2797122289       -0.4025934990        2.1810064817
 H         -2.5939057483       -0.0142396181        3.7877061009
 H         -0.3484543383        0.8921901723        4.2692489797
 H          0.9464920809        2.0027951518        2.4852367287
 H          0.5814962099        3.4094361509        0.3031121783
 C         -0.4096309306        2.5616856301       -1.3931234210
 C         -1.3698000909        3.6893539799       -1.6186215310
 C         -0.0318883011        3.6967327798       -2.2942302116
 H          0.0111217885        3.5188544294       -3.3582995615
 H          0.7190178589        4.3865203900       -1.9366736121
 H         -2.2514067111        3.5042927396       -2.2140471706
 H         -1.5298600606        4.3787058502       -0.8032061112
 H         -0.6279890907        1.6073490199       -1.8590256405
