  62
        -98.94324607
 C         -1.1118506962       -0.6942406275        0.9103138887
 C         -1.7066549357       -0.7098599580       -0.3762119418
 C         -2.4056283519        0.5217310739       -0.7754268036
 C         -2.3535520066        1.6025624621        0.0214154651
 C         -3.0505721089        2.9044774636       -0.2457490548
 C         -4.4554724787        2.9223048822        0.3734847053
 C         -5.2905336186        1.6837385629        0.0488713229
 H         -4.8304661751        0.8108423855        0.5174984904
 H         -6.2691687537        1.8205561909        0.5137670009
 C         -5.4703212615        1.4147409997       -1.4516019898
 H         -5.2419208729        2.3170539631       -2.0200071820
 H         -6.5170883649        1.1678450605       -1.6407240822
 C         -4.6341611476        0.2529006892       -1.9914840192
 H         -4.7911390165       -0.6314061481       -1.3685795810
 H         -4.9926809219        0.0132165234       -2.9960776428
 C         -3.1248973322        0.5084852784       -2.0943606267
 H         -2.6822092424       -0.3131976861       -2.6657065052
 H         -2.9416560708        1.4365920177       -2.6405776365
 H         -4.9749618651        3.8158597674        0.0227233807
 H         -4.3538467890        2.9919055212        1.4589861869
 H         -2.4574717997        3.7086314085        0.1935994728
 H         -3.1111532733        3.0613926460       -1.3212122842
 O         -1.6818140385        1.6155866728        1.2010408079
 C         -1.0518614555        0.4736405737        1.6730468059
 O         -0.4710193476        0.6302785745        2.7659928590
 H          1.4771173131       -0.4116049793        0.3040124825
 C          1.4977503537       -1.4073197463       -0.1127098950
 C          0.6125500523       -2.3579866487        0.3806701689
 C          0.6435879757       -3.6378391838       -0.1532947806
 C          1.5212511255       -3.9377966024       -1.1816623738
 C          2.3636154138       -2.9742820395       -1.7049064635
 C          2.3453451681       -1.6907750360       -1.1681594854
 N          3.1894843121       -0.6857191097       -1.6598869977
 S          2.7735937189        0.9291151353       -1.5444601548
 O          1.3548598500        1.1535059447       -1.6990320096
 O          3.6267628841        1.5786492268       -2.5185121780
 C          3.3173712358        1.3857976183        0.0881542779
 C          2.4343944037        1.9655738956        0.9762590625
 C          2.8798436019        2.3020631299        2.2447905750
 C          4.1981956845        2.0601766827        2.5981668353
 C          5.0770622475        1.4863656331        1.6912697918
 C          4.6351404015        1.1435281253        0.4240428538
 H          5.2852312839        0.6964727390       -0.3092629236
 H          6.1018131400        1.3018446916        1.9706263878
 H          4.5396031342        2.3206118939        3.5875821570
 H          2.1869084529        2.7348963006        2.9486759539
 H          1.4108516070        2.1290270912        0.6724262443
 H          3.6744759407       -0.9044100211       -2.5171897249
 H          3.0226684558       -3.2055082844       -2.5277568508
 H          1.5327454649       -4.9335783513       -1.5986043163
 H         -0.0389485457       -4.3890589007        0.2087912531
 C         -0.3449599916       -1.8925684324        1.4497257691
 H          0.2545678752       -1.4891281581        2.2828586532
 C         -1.2077897848       -2.9987808553        2.0347207106
 C         -2.5559618021       -2.6929328910        2.6147705006
 C         -2.4461818565       -3.5045418695        1.3607485082
 H         -2.6617308257       -4.5617167425        1.4174551862
 H         -2.7253718703       -3.0518825516        0.4231715528
 H         -2.8480518478       -3.1884666931        3.5284755013
 H         -2.9117512036       -1.6754555299        2.5358920543
 H         -0.6122287799       -3.7326021939        2.5691692981
 O         -1.6738348181       -1.6960102361       -1.1567744565
