  62
        -98.94897264
 C          1.6297039886        1.2898130594       -0.2850316904
 C          0.5570981682        1.7107071731       -1.1047030003
 C         -0.4162578602        2.6134708513       -0.4795256924
 C         -0.2630013025        2.9507620844        0.8139639400
 C         -1.2008239960        3.8359672944        1.5829707261
 C         -2.2945648161        3.0230069592        2.2882918322
 C         -2.9958412615        2.0088889235        1.3842667716
 H         -2.2796109786        1.2293652376        1.1122360485
 H         -3.7706952162        1.5267502347        1.9863997018
 C         -3.6273456575        2.6078374897        0.1196256689
 H         -4.6220570414        2.1759324190       -0.0095150564
 H         -3.7559089555        3.6835678978        0.2474463858
 C         -2.8527035705        2.3385121154       -1.1715142247
 H         -3.4971957829        2.5994328542       -2.0150061067
 H         -2.6259187650        1.2721418202       -1.2453382225
 C         -1.5425313047        3.1170018347       -1.3376755904
 H         -1.2096880705        2.9898155786       -2.3719150654
 H         -1.7173804625        4.1800902599       -1.1599120304
 H         -3.0287415707        3.7180616007        2.7015446419
 H         -1.8395726264        2.4734213794        3.1159815150
 H         -1.6521398351        4.5546802785        0.9011133934
 H         -0.6223905182        4.3758812084        2.3349469453
 O          0.7612261162        2.4994655832        1.5814011058
 C          1.7192497753        1.6427097190        1.0614182033
 O          2.5908954804        1.2892595533        1.8795599095
 O          0.4239763456        1.3519550364       -2.3069665364
 C          2.6713971476        0.3496454052       -0.8664599419
 C          2.6145484325       -0.9657433955       -0.1306524073
 C          3.7300952791       -1.6275509108        0.3636916324
 C          3.5830531521       -2.8072359712        1.0738348931
 C          2.3304954738       -3.3392086739        1.3166225957
 C          1.2085058365       -2.6916150253        0.8100317494
 C          1.3616310124       -1.5333494901        0.0680388649
 H          0.4886870996       -1.0296314995       -0.3216875327
 N         -0.0798008048       -3.2075605563        1.0164961567
 S         -1.4041714517       -2.1960254759        1.1476605784
 O         -1.0488028652       -0.8865764693        1.6433759904
 O         -2.3532263771       -2.9357399890        1.9550782358
 C         -2.0659301352       -2.0693025875       -0.5026946479
 C         -3.2249295379       -1.3315798229       -0.6478880217
 C         -3.7984804135       -1.2145206865       -1.9038323541
 C         -3.2045597453       -1.8349161347       -2.9918509990
 C         -2.0446162844       -2.5752323173       -2.8296120183
 C         -1.4676398023       -2.6991789631       -1.5746104243
 H         -0.5641131913       -3.2669978492       -1.4257106184
 H         -1.5826440865       -3.0562314772       -3.6767779303
 H         -3.6476134210       -1.7392787552       -3.9704588968
 H         -4.7003053468       -0.6368541769       -2.0283189010
 H         -3.6517168951       -0.8620623732        0.2244101371
 H         -0.1384316078       -3.9878874889        1.6534046712
 H          2.2162413264       -4.2429433460        1.8955292216
 H          4.4567021305       -3.3097057730        1.4605752712
 H          4.7127120025       -1.2136595053        0.2081669968
 H          2.3593444955        0.1772448884       -1.9075011395
 C          4.0416475879        0.9922426356       -0.8653601038
 C          5.0624901685        0.5947327327       -1.8884346616
 C          4.4001849520        1.9359939509       -1.9727098462
 H          4.9781940470        2.8156455156       -1.7325271528
 H          3.6620952670        2.0966038148       -2.7448660283
 H          6.1000281931        0.5551769906       -1.5928785147
 H          4.7795626630       -0.1553321368       -2.6111756000
 H          4.3831205435        1.2403276697        0.1333281315
