  62
        -98.94047511
 C          2.3183530107       -0.7653512708       -0.1490138557
 C          3.0999322155       -0.0961818641       -1.1277830063
 C          4.0000529533        0.9570094449       -0.6428615706
 C          4.0249556089        1.2420699259        0.6713968277
 C          4.9276535371        2.2537765786        1.3144260811
 C          6.2460301425        1.6126958808        1.7699522723
 C          6.9210284401        0.7587104949        0.6965990847
 H          7.8552199909        0.3832130415        1.1199011842
 H          6.2926982542       -0.1095583577        0.4849020467
 C          7.2153163832        1.5018304647       -0.6140048094
 H          8.2294508807        1.2557269610       -0.9355227530
 H          7.1817352975        2.5786631565       -0.4448128257
 C          6.2813862014        1.1416462505       -1.7709436566
 H          6.2387816284        0.0553525269       -1.8831680506
 H          6.7078326973        1.5488601778       -2.6914764834
 C          4.8460254448        1.6709046266       -1.6592358587
 H          4.8641855204        2.7441464544       -1.4591741658
 H          4.3556499282        1.5084346185       -2.6233607724
 H          6.9247906995        2.4069140725        2.0859929738
 H          6.0410757619        0.9767871199        2.6343521775
 H          5.1269331852        3.0556574629        0.6061451511
 H          4.4156383757        2.6681077392        2.1846199240
 O          3.2501674324        0.5971679813        1.5782874194
 C          2.3820890494       -0.4216381181        1.2016352418
 O          1.7467553013       -0.9070665547        2.1574209134
 H         -0.1883107888       -0.4540131170        1.0085643078
 C         -0.6689706048       -0.6450208259        0.0599526132
 C          0.0123487878       -1.3611188012       -0.9147364794
 C         -0.6266596640       -1.6115534653       -2.1230801283
 C         -1.9144596200       -1.1555176776       -2.3459375854
 C         -2.5888306507       -0.4411506525       -1.3721582852
 C         -1.9594448321       -0.1859306962       -0.1606291586
 N         -2.6314965630        0.5478801078        0.8338994180
 S         -4.1599736062        0.0163724770        1.2886616518
 O         -4.3484992332        0.5000023957        2.6386097953
 O         -4.3031946385       -1.4072321812        1.0885376835
 C         -5.2562587395        0.9005493998        0.1992216111
 C         -5.1810205489        2.2795675085        0.1830959053
 C         -6.0298796892        2.9861865142       -0.6536273014
 C         -6.9367362317        2.3059367215       -1.4529570838
 C         -7.0028481584        0.9214392980       -1.4219835211
 C         -6.1554871938        0.2083531053       -0.5879777010
 H         -6.1668700401       -0.8686008395       -0.5344883804
 H         -7.7089792192        0.3947323949       -2.0435521136
 H         -7.5959064967        2.8586167452       -2.1036026229
 H         -5.9812619591        4.0628797513       -0.6800905165
 H         -4.4648170992        2.7686993701        0.8221639215
 H         -2.0627661788        0.7185550706        1.6514287178
 H         -3.5912833193       -0.0827947092       -1.5398202601
 H         -2.3984152669       -1.3566277075       -3.2892793528
 H         -0.1030887446       -2.1588737649       -2.8931314818
 C          1.4068663873       -1.8705749923       -0.6532808935
 H          1.8367705031       -2.1612812860       -1.6248736658
 C          1.4231605461       -3.1077206010        0.2355861013
 C          0.2590682068       -3.5603665106        1.0603764731
 C          0.6509249278       -4.3305645045       -0.1627639792
 H          1.1128717217       -5.2985583425       -0.0419264634
 H          0.0062703652       -4.2506038512       -1.0250472805
 H         -0.6530914942       -2.9841577740        1.0311247889
 H          0.4699693910       -3.9795628100        2.0326376701
 H          2.4036861633       -3.2755413181        0.6704024954
 O          3.0488421793       -0.3764757907       -2.3548679539
