  62
        -98.94402181
 C          1.7644337391        1.2119751463        0.4193011041
 C          1.8828980871        0.2901158720       -0.6485452712
 C          3.2531641542        0.0251653883       -1.1133248566
 C          4.2827376815        0.6752896971       -0.5407995609
 C          5.7288851009        0.4629207809       -0.8814016295
 C          6.3565115867       -0.6152548215        0.0130399310
 C          5.5334600656       -1.9005895596        0.1002582397
 H          4.5896780931       -1.6878873505        0.6079117754
 H          6.0867866206       -2.5994630430        0.7313480594
 C          5.2394380186       -2.5588968121       -1.2549504416
 H          5.4155240752       -3.6331556741       -1.1679787653
 H          5.9285904923       -2.1779036364       -2.0094914911
 C          3.8017057744       -2.3830231592       -1.7481438522
 H          3.1031428634       -2.6767064906       -0.9598319827
 H          3.6455417206       -3.0628854135       -2.5902005295
 C          3.4253448140       -0.9736262727       -2.2227514605
 H          2.4524285909       -1.0409975796       -2.7187601222
 H          4.1592483600       -0.6219904786       -2.9508858459
 H          6.4645727120       -0.2091632361        1.0214089674
 H          7.3526839602       -0.8445739574       -0.3694971251
 H          5.8123587614        0.1760310545       -1.9277107391
 H          6.2599565232        1.4037623006       -0.7278030695
 O          4.1247871487        1.5772111414        0.4613662901
 C          2.8699305238        1.8525161523        0.9791915591
 O          2.8690318536        2.6722255655        1.9197273921
 H         -2.0945201732        0.4389579247        0.5236233576
 C         -1.5043967730       -0.1441975913        1.2084965426
 C         -0.2260405977        0.2657370897        1.5503918552
 C          0.5011921423       -0.5059933587        2.4539459450
 C         -0.0359306470       -1.6590574358        2.9911205722
 C         -1.3075811718       -2.0731869763        2.6322512094
 C         -2.0426873434       -1.3119684706        1.7338397821
 N         -3.3497957438       -1.6814927400        1.3681603869
 S         -3.7191926816       -1.8139718842       -0.2666986754
 O         -4.9315677928       -2.6065164127       -0.2905339008
 O         -2.6071041190       -2.3392852268       -1.0224549968
 C         -4.1121924206       -0.1581596276       -0.7852031148
 C         -3.3826245997        0.4319177293       -1.7983485444
 C         -3.7215301198        1.7127738972       -2.2059860606
 C         -4.7765532396        2.3755662982       -1.5964584786
 C         -5.4986401984        1.7675700550       -0.5801542771
 C         -5.1674457954        0.4862554487       -0.1698807874
 H         -5.7068074644       -0.0252348365        0.6096242296
 H         -6.3162022956        2.2884206008       -0.1085233455
 H         -5.0347252033        3.3732855210       -1.9156169027
 H         -3.1573212709        2.1883383312       -2.9926928447
 H         -2.5586082186       -0.1140635221       -2.2314357312
 H         -3.7001012178       -2.4901008381        1.8632818981
 H         -1.7260505504       -2.9791293722        3.0447873985
 H          0.5407402723       -2.2461267745        3.6903678105
 H          1.4970308792       -0.1850363435        2.7298089673
 C          0.3990212186        1.5268015798        1.0042201790
 H          0.5843500979        2.2041640488        1.8508470652
 C         -0.4656601885        2.2435296231       -0.0110704588
 C         -1.5490934826        3.1699246016        0.4507535082
 C         -0.3081829205        3.7233650141       -0.1811926684
 H         -0.3738669731        4.1368703444       -1.1761335747
 H          0.4136574657        4.2206018086        0.4505919905
 H         -1.6733229110        3.2972984145        1.5154125839
 H         -2.4710846175        3.2042890158       -0.1095544462
 H         -0.6393854629        1.6531041758       -0.9033182114
 O          0.8993883704       -0.2808769781       -1.1883882190
