  62
        -98.94726181
 C          0.9753491323        1.5357623978       -0.8684010598
 C          2.2814907180        1.4858408917       -0.3157961747
 C          3.0551678675        0.2682819198       -0.5725341392
 C          2.5130382404       -0.7192887803       -1.3065097943
 C          3.1530148820       -2.0423784616       -1.6271031802
 C          2.9865384827       -3.0811459080       -0.5090278787
 C          3.8705380014       -2.8575074866        0.7185789880
 H          3.8410315339       -3.7778984180        1.3054772592
 H          4.9032926538       -2.7035463024        0.4025830716
 C          3.4213802408       -1.6934269041        1.6132203732
 H          2.3795960794       -1.4440897774        1.3936721182
 H          3.4516314914       -2.0093678977        2.6592532701
 C          4.2803762449       -0.4332299725        1.4999562311
 H          5.2858363948       -0.6422016787        1.8738787020
 H          3.8366751571        0.3374330618        2.1356184988
 C          4.3977695196        0.1346357756        0.0799458888
 H          4.8352262159        1.1340267466        0.1480803183
 H          5.0525093119       -0.4939613680       -0.5235497298
 H          1.9399723523       -3.0945559592       -0.1921919402
 H          3.2234677504       -4.0611292073       -0.9306973666
 H          2.6625350654       -2.4186141523       -2.5275619007
 H          4.2128366696       -1.9013142127       -1.8411300400
 O          1.2828616790       -0.6151065663       -1.8666267647
 C          0.4668713748        0.4840726390       -1.6311284111
 O         -0.6534567877        0.3848858602       -2.1700474819
 O          2.7773431881        2.4240084839        0.3662179328
 C          0.1237341632        2.7285758484       -0.4662592409
 C         -0.6099157173        2.3858521791        0.8108634724
 C         -0.5997223258        3.2356675075        1.9101230310
 C         -1.2114977847        2.8595836211        3.0934942854
 C         -1.8058500537        1.6161806719        3.2167615972
 C         -1.8223847784        0.7615473553        2.1206522742
 C         -1.2674526281        1.1696068333        0.9188363012
 H         -1.3083349201        0.5043513005        0.0721811651
 N         -2.3768449732       -0.5252177362        2.1918029609
 S         -1.6034027716       -1.7725688689        1.3745632031
 O         -1.9896638882       -2.9666005450        2.1023211485
 O         -0.1806987650       -1.5462374759        1.2665182227
 C         -2.3719726395       -1.8343654631       -0.2275916760
 C         -3.6851058883       -1.4325861674       -0.3672169357
 C         -4.2877888262       -1.5428610302       -1.6094663009
 C         -3.5749801353       -2.0570290174       -2.6816006983
 C         -2.2597672763       -2.4612753298       -2.5226331909
 C         -1.6502396608       -2.3501576820       -1.2838224669
 H         -0.6212772686       -2.6336635011       -1.1261932976
 H         -1.7001490326       -2.8502622590       -3.3581077270
 H         -4.0443495967       -2.1375473458       -3.6495415617
 H         -5.3095620284       -1.2235375038       -1.7388301086
 H         -4.2066167293       -1.0309112905        0.4858056576
 H         -2.6804191792       -0.8145396726        3.1105044020
 H         -2.2427509627        1.3043720358        4.1531380783
 H         -1.1978664101        3.5287960642        3.9404175202
 H         -0.0881980080        4.1842361552        1.8424710278
 H          0.8330727076        3.5357444188       -0.2362445550
 C         -0.8371893342        3.2198364947       -1.5288219095
 C         -1.3071545122        4.6420214357       -1.4833405246
 C         -0.3579227377        4.1999756298       -2.5554643179
 H         -0.7232653343        4.1034097895       -3.5664669796
 H          0.6704129998        4.5253128661       -2.4928031603
 H         -2.3291473775        4.8536179370       -1.7570120903
 H         -0.9223932840        5.2735137083       -0.6971003989
 H         -1.5407610378        2.4643074228       -1.8522045384
