  62
        -98.94339560
 C         -1.9672798844       -0.9021177177       -0.4840884413
 C         -0.8962991624       -1.3303336741       -1.3023389234
 C         -0.1013362661       -2.4576955825       -0.8000317290
 C         -0.4313723754       -3.0186009603        0.3769029762
 C          0.3462895731       -4.0974421581        1.0752220198
 C          1.5619216137       -3.4739690581        1.7922390937
 C          2.9177231357       -3.9094934652        1.2339696592
 H          3.6707081481       -3.2454856061        1.6646505978
 H          3.1344625541       -4.9240007401        1.5766939282
 C          3.0499236223       -3.8898507823       -0.2921006696
 H          4.1164687181       -3.9449953762       -0.5201628235
 H          2.5939572263       -4.7886657972       -0.7104994111
 C          2.4571859558       -2.6613827639       -0.9943899279
 H          2.3937925257       -1.8225487697       -0.2988520649
 H          3.1363433820       -2.3632123436       -1.7960946297
 C          1.0724355895       -2.8995449097       -1.6291099240
 H          0.9629820426       -3.9552012088       -1.8917123813
 H          1.0020763806       -2.3211451526       -2.5551656947
 H          1.4750732313       -2.3857660236        1.7353566353
 H          1.5309324020       -3.7323510644        2.8523922239
 H         -0.3215498914       -4.5648790822        1.7994795028
 H          0.6665602820       -4.8495834822        0.3575057022
 O         -1.4881666872       -2.6035093101        1.1204870163
 C         -2.2467420146       -1.5061670051        0.7410326044
 O         -3.1312409435       -1.1901401427        1.5604798934
 O         -0.6039032250       -0.7784050766       -2.3993601950
 C         -2.7262608471        0.3580943487       -0.8711487421
 C         -2.3685581318        1.4153447139        0.1460994760
 C         -3.2895853161        2.1160063261        0.9108625589
 C         -2.8529690536        2.9824960045        1.8998961118
 C         -1.5054608085        3.1462730452        2.1609675778
 C         -0.5737543264        2.4614626086        1.3855807441
 C         -1.0140585264        1.6411799866        0.3630810252
 H         -0.2928815463        1.1140568501       -0.2401979525
 N          0.8002454781        2.5979789731        1.6180332758
 S          1.9075659054        1.3997278113        1.2378505469
 O          1.3271439788        0.0780671049        1.2535568122
 O          2.9954158661        1.6240222809        2.1681936666
 C          2.4592420166        1.8636886260       -0.3905202890
 C          2.1207947815        1.1248941348       -1.5048881192
 C          2.5657885720        1.5465772683       -2.7489020397
 C          3.3383348153        2.6914659209       -2.8577775193
 C          3.6745552461        3.4219336518       -1.7272480532
 C          3.2319503134        3.0063934851       -0.4830243322
 H          3.4788218060        3.5363339786        0.4218366636
 H          4.2775665404        4.3114253598       -1.8133495547
 H          3.6802941931        3.0143831776       -3.8284467773
 H          2.2944789794        0.9748669981       -3.6220647727
 H          1.5124871171        0.2398425660       -1.4043306994
 H          1.0480658181        3.0928158810        2.4612305211
 H         -1.1729371079        3.7905871112        2.9605821303
 H         -3.5765495215        3.5184486794        2.4955556721
 H         -4.3450876983        1.9695965912        0.7509066476
 H         -2.3191318834        0.6597065800       -1.8471594802
 C         -4.2103036918        0.1076780292       -1.0121284344
 C         -5.0415161182        1.0110285240       -1.8722498700
 C         -4.7426210617       -0.3862778107       -2.3228415288
 H         -5.5388615749       -1.1152708444       -2.3125260544
 H         -4.0339991497       -0.5258296256       -3.1260326765
 H         -6.0471909976        1.2424670475       -1.5557146477
 H         -4.5384224936        1.8234371888       -2.3742468565
 H         -4.6544438568       -0.2945561331       -0.1090867353
