  62
        -98.93240283
 C          2.0266437443        1.1598658424       -0.3857141575
 C          2.7080143261        0.5891144953        0.7177766563
 C          3.1600258980       -0.8057620978        0.5911988256
 C          2.8932020780       -1.4769748684       -0.5443837320
 C          3.1507777572       -2.9164782989       -0.9401767066
 C          4.0707219573       -3.8020293207       -0.1042434317
 C          5.5477236016       -3.4112592273       -0.1543122908
 H          6.0905939230       -4.0297258493        0.5635189124
 H          5.9321724646       -3.6416954164       -1.1510259745
 C          5.8494217700       -1.9413476481        0.1258381543
 H          6.9288674065       -1.7971983562        0.0290179298
 H          5.3715592979       -1.3184373177       -0.6330016282
 C          5.4366384770       -1.4414761395        1.5085489460
 H          5.8411870824       -0.4329745635        1.6286450444
 H          5.8834989407       -2.0750587389        2.2770822172
 C          3.9211907748       -1.3639324860        1.7597167366
 H          3.5189285004       -2.3307860668        2.0532019631
 H          3.7502169436       -0.6726736808        2.5902514765
 H          3.7182978073       -3.8431227528        0.9221220605
 H          3.9823623564       -4.8134349459       -0.5100965423
 H          2.1603799365       -3.3838781413       -0.9856117141
 H          3.5211322688       -2.8831502116       -1.9699900117
 O          2.2408278577       -0.8866317970       -1.5864107491
 C          1.7780192904        0.4234395129       -1.5433525496
 O          1.2070580151        0.7761483360       -2.5914883991
 H         -0.5151739774        0.7718949781       -0.2858758292
 C         -0.6869604881        1.5247454929        0.4693334095
 C          0.2512653648        2.5278698501        0.6657385704
 C          0.0136229311        3.4828390408        1.6471426525
 C         -1.1464260457        3.4402882526        2.4003797725
 C         -2.0831447035        2.4442787803        2.1955931646
 C         -1.8436023827        1.4692144698        1.2317973030
 N         -2.7467555162        0.4092802930        1.0579811057
 S         -2.7610908891       -0.4792342803       -0.3729640874
 O         -1.6246373501       -1.3665939758       -0.3778552991
 O         -2.9151317038        0.4016434570       -1.5087848805
 C         -4.2539063793       -1.4220795651       -0.1251588190
 C         -5.4143606249       -1.0494829285       -0.7762413024
 C         -6.5728801515       -1.7768680294       -0.5511547271
 C         -6.5517847270       -2.8569707398        0.3181202417
 C         -5.3786822596       -3.2206166392        0.9630948820
 C         -4.2169967534       -2.4985295609        0.7413038305
 H         -3.2798402000       -2.7484652230        1.2110624903
 H         -5.3646928211       -4.0630062587        1.6356988429
 H         -7.4544112100       -3.4210025064        0.4921229912
 H         -7.4849262587       -1.4987460469       -1.0541198832
 H         -5.3795243914       -0.2071784306       -1.4483422894
 H         -3.6766563267        0.6094773267        1.3986333797
 H         -2.9855960441        2.4074813703        2.7859038364
 H         -1.3228271576        4.1898816045        3.1566523840
 H          0.7512094427        4.2509095639        1.8272528046
 C          1.5029625304        2.5697462925       -0.1773363960
 H          2.2751885992        3.0874212196        0.4159938712
 C          1.3068957160        3.3620781920       -1.4598032573
 C         -0.0260235537        3.5236718268       -2.1201464344
 C          0.6163518980        4.6940014318       -1.4414254955
 H          1.0172036148        5.4867392801       -2.0545982408
 H          0.1870545664        5.0260835405       -0.5087925084
 H         -0.0559239119        3.4895143926       -3.1984014657
 H         -0.8823864396        3.0556941441       -1.6574918158
 H          2.1584505621        3.2643026500       -2.1252408138
 O          2.9257657601        1.2298450308        1.7825285943
