  62
        -98.93874727
 C         -1.8756172916       -0.6670153080        0.8656765338
 C         -2.2208548503        0.7082448207        0.8003476567
 C         -3.6469760323        1.0181276174        0.6588761645
 C         -4.5436029223        0.0161633046        0.6250889313
 C         -6.0369797673        0.1650081624        0.5157025031
 C         -6.5438886886        0.3346476766       -0.9229361371
 C         -6.2467271730        1.6923659458       -1.5606455613
 H         -6.8407622547        1.7536347458       -2.4747188872
 H         -6.5888788769        2.4866767118       -0.8965039716
 C         -4.7699845758        1.9156680254       -1.9158921211
 H         -4.6965819319        2.3275670781       -2.9249639090
 H         -4.2473797926        0.9562510285       -1.9243782821
 C         -4.0299617820        2.8726204433       -0.9811263282
 H         -2.9872327313        2.9277517575       -1.3040224329
 H         -4.4622152761        3.8723583960       -1.0634810386
 C         -4.0466105404        2.4533327813        0.4947184069
 H         -3.3183432677        3.0642991176        1.0334075352
 H         -5.0338163781        2.6247022116        0.9235449960
 H         -6.1164641198       -0.4592581984       -1.5398175503
 H         -7.6272487555        0.1945714224       -0.9052508323
 H         -6.3660994627        1.0103793966        1.1206783923
 H         -6.4711709714       -0.7482852766        0.9282484696
 O         -4.1787733644       -1.2887997902        0.7096014703
 C         -2.8429033237       -1.6715552455        0.8022612340
 O         -2.6841258034       -2.9049777220        0.8231332285
 O         -1.3703345851        1.6356645361        0.8692542148
 C         -0.3978518415       -0.9816544461        1.0032962033
 C          0.2722810989       -1.1668752299       -0.3340208194
 C         -0.3157775950       -1.9059390782       -1.3547901870
 C          0.3408837129       -2.0794362137       -2.5598041452
 C          1.6021752147       -1.5461840017       -2.7595612540
 C          2.1999565489       -0.8084874453       -1.7449596250
 C          1.5221622127       -0.6058490712       -0.5510803613
 H          1.9798507013       -0.0081747220        0.2218652030
 N          3.4778874827       -0.2563084788       -1.9051358652
 S          4.5550102380       -0.3032284873       -0.6210945204
 O          5.8614740654       -0.2359652543       -1.2391641891
 O          4.3077679750       -1.4421612186        0.2305502135
 C          4.2546603343        1.2118968110        0.2622435388
 C          4.3150713380        2.3996093657       -0.4393539429
 C          4.0968920209        3.5882257779        0.2378938715
 C          3.8259743115        3.5693997148        1.5978295625
 C          3.7722069159        2.3688506225        2.2885885288
 C          3.9891481024        1.1762359257        1.6165860420
 H          3.9498738301        0.2203234864        2.1154648776
 H          3.5591304759        2.3556259789        3.3454893005
 H          3.6542346046        4.4954747265        2.1234034870
 H          4.1364562894        4.5246411547       -0.2947985067
 H          4.5315070540        2.3734488585       -1.4942189879
 H          3.9273149482       -0.4705873800       -2.7833835499
 H          2.1204960652       -1.6994610912       -3.6940190415
 H         -0.1275319541       -2.6518469884       -3.3465102608
 H         -1.2849776967       -2.3526441053       -1.1905580207
 H          0.0375019659       -0.0773496705        1.4589435801
 C         -0.1097626190       -2.1407885396        1.9475874659
 C          0.2903767584       -3.5054367044        1.4839481633
 C          1.2942256757       -2.6254953640        2.1632411613
 H          1.6005230250       -2.8758944214        3.1680976686
 H          2.0838724014       -2.2063796689        1.5557654014
 H         -0.1118269986       -4.3542090056        2.0155184646
 H          0.3938277638       -3.6715300220        0.4231477814
 H         -0.7472806103       -2.1059598506        2.8259801384
