  62
        -98.94416695
 C         -2.2443698434       -0.8550501442        0.4191444217
 C         -2.4623145519       -0.0276330398       -0.7093462281
 C         -3.3183984874        1.1437733905       -0.4811843714
 C         -3.8001203990        1.3925775443        0.7501108702
 C         -4.6649369652        2.5593099698        1.1441121220
 C         -6.1602283915        2.3500905157        0.8678774867
 C         -6.5634304355        2.4051199966       -0.6061866684
 H         -7.6532156423        2.4632386636       -0.6376176009
 H         -6.1757699382        3.3208746221       -1.0535272283
 C         -6.1095898116        1.1936203937       -1.4325359804
 H         -6.9393544878        0.8432633863       -2.0504413042
 H         -5.8427667415        0.3742017920       -0.7611008917
 C         -4.9327793375        1.4691759450       -2.3685863454
 H         -5.2316485472        2.1933281941       -3.1295864129
 H         -4.6717681737        0.5364667493       -2.8747912862
 C         -3.6747311966        1.9931264388       -1.6636909435
 H         -2.8408456728        1.9450428881       -2.3682425224
 H         -3.8177171150        3.0298682216       -1.3597012065
 H         -6.4630113955        1.3905217456        1.2933957366
 H         -6.7020200336        3.1351227040        1.4004858257
 H         -4.5296409257        2.6972688348        2.2191528079
 H         -4.3217267251        3.4591702772        0.6327365933
 O         -3.5262786934        0.5967488332        1.8195566118
 C         -2.7598906570       -0.5495631982        1.6776043226
 O         -2.5998419143       -1.1951333543        2.7349612504
 H          0.1142915193       -0.1114485578        1.1848061564
 C          0.6378908634       -0.6780115817        0.4231517939
 C         -0.0031767819       -1.7559707034       -0.1752178341
 C          0.6877824545       -2.4842434219       -1.1346230625
 C          1.9753884239       -2.1253070339       -1.4947920615
 C          2.6011985362       -1.0404399287       -0.9097085629
 C          1.9245634058       -0.3122677624        0.0603368072
 N          2.5517976820        0.7978534361        0.6570969946
 S          4.0510910791        0.5466406044        1.3746021944
 O          4.1836640705       -0.8086069513        1.8579561715
 O          4.1795043448        1.5966759862        2.3617080193
 C          5.2122629339        0.8414016936        0.0577279631
 C          6.1283210881       -0.1342630839       -0.2835771637
 C          7.0276228033        0.1204333349       -1.3074228331
 C          6.9953017126        1.3394802496       -1.9670895762
 C          6.0705443383        2.3097679341       -1.6101006405
 C          5.1695538056        2.0622074400       -0.5868218342
 H          4.4374508535        2.7891868350       -0.2768145105
 H          6.0483053239        3.2564499393       -2.1254727058
 H          7.6951483072        1.5351828771       -2.7640874228
 H          7.7475110016       -0.6322033412       -1.5861304078
 H          6.1111279114       -1.0690776450        0.2535528120
 H          1.9486402753        1.3097537486        1.2849021021
 H          3.6002556439       -0.7530776260       -1.1937448881
 H          2.4974608353       -2.6972762567       -2.2464451462
 H          0.2170207439       -3.3326471324       -1.6032840442
 C         -1.3985780422       -2.1073316051        0.2837126091
 H         -1.3207896308       -2.5332873959        1.2956089660
 C         -2.0950545142       -3.1091415856       -0.6144014308
 C         -1.9091484608       -4.5798210015       -0.3970261816
 C         -3.2129014834       -3.9294745285       -0.0470190257
 H         -4.0741315740       -4.1284178115       -0.6669806719
 H         -3.4511703537       -3.7858962807        0.9973463633
 H         -1.2650892029       -4.8887710002        0.4125303095
 H         -1.8785515243       -5.2292304107       -1.2589140456
 H         -2.2044576244       -2.7488027225       -1.6307183612
 O         -1.9667656288       -0.2496437823       -1.8435216055
