  62
        -98.94029568
 C          1.9977581514        1.4221883694       -0.1439641766
 C          1.7603623456        0.0539660363       -0.4247391643
 C          2.9600172787       -0.7738543360       -0.6153591986
 C          4.1827868781       -0.2224493531       -0.5223297904
 C          5.4942106691       -0.9349849742       -0.7120387621
 C          5.9969721774       -1.6592041614        0.5443991331
 C          5.2281371696       -2.9276833317        0.9171435801
 H          5.1707338845       -3.5852931938        0.0491673496
 H          5.8149311369       -3.4450720534        1.6788214503
 C          3.8177966130       -2.6754172079        1.4688925997
 H          3.6608043517       -3.2856672913        2.3612708959
 H          3.7288869759       -1.6312527426        1.7781207442
 C          2.6868483823       -3.0012182716        0.4932657284
 H          2.6817461466       -4.0733405317        0.2841214705
 H          1.7375289789       -2.7476069259        0.9726741223
 C          2.7648200738       -2.2431759626       -0.8381965080
 H          3.5681059483       -2.6464077689       -1.4543336798
 H          1.8168931935       -2.3800618585       -1.3638101345
 H          5.9742121771       -0.9598522503        1.3835418764
 H          7.0401795070       -1.9313625858        0.3680097247
 H          5.4107962079       -1.6461536077       -1.5342855750
 H          6.2264816064       -0.1718928228       -0.9848026600
 O          4.3692556371        1.0963584859       -0.2479692828
 C          3.2907711783        1.9374466046       -0.0221750598
 O          3.6080768437        3.1061174477        0.2767442868
 H         -1.8776721948        2.0767758768       -0.2325867703
 C         -1.5165167478        1.6717464166        0.6998939846
 C         -0.1692812874        1.7467861395        1.0162621128
 C          0.2580601838        1.1991561249        2.2238308293
 C         -0.6303043717        0.5705976048        3.0738829662
 C         -1.9739955642        0.4900131151        2.7502213193
 C         -2.4136890726        1.0449701959        1.5575546203
 N         -3.7866489267        0.9780344356        1.2368614950
 S         -4.4628231487       -0.5182744763        0.9065880439
 O         -5.8895727954       -0.2953363647        0.8334521006
 O         -4.0131742321       -1.4635919038        1.8955196962
 C         -3.8589002657       -0.9652899524       -0.7127736602
 C         -4.7413308966       -0.9829846920       -1.7760013821
 C         -4.2640231501       -1.2879835110       -3.0401739574
 C         -2.9154839867       -1.5570616325       -3.2220957606
 C         -2.0437191201       -1.5303308977       -2.1451448290
 C         -2.5150984472       -1.2350796872       -0.8759311332
 H         -1.8404442695       -1.2001243439       -0.0360407604
 H         -0.9895757458       -1.7180350082       -2.2715407129
 H         -2.5409827108       -1.7865851625       -4.2074771063
 H         -4.9413115508       -1.3101878165       -3.8789072477
 H         -5.7795141837       -0.7607796686       -1.5885251274
 H         -4.0612736605        1.6286355744        0.5136049401
 H         -2.6788328118       -0.0110857701        3.3929747135
 H         -0.2766420385        0.1406908975        3.9992620060
 H          1.3079223258        1.2589471780        2.4798116981
 C          0.8562437969        2.3909454776        0.1144510033
 H          1.3135416374        3.2255566154        0.6716025574
 C          0.2551442314        2.9903384400       -1.1493607778
 C          1.0305290188        3.0435322671       -2.4309761518
 C         -0.1564614462        2.1379630381       -2.3115381393
 H         -1.0557101621        2.3999647140       -2.8502800914
 H          0.0104359317        1.0760208043       -2.2293056030
 H          0.9457022527        3.9301123571       -3.0415144534
 H          2.0162447304        2.6014567951       -2.4412552875
 H         -0.3647448954        3.8552975304       -0.9329671842
 O          0.6188738958       -0.4624294995       -0.5164118833
