  62
        -98.93754631
 C         -2.0337840632       -0.9300011268        0.0263257625
 C         -2.2644244389        0.0723828238        0.9928801361
 C         -2.4405174297        1.4510460605        0.4999016691
 C         -2.3556568297        1.6787588634       -0.8241580248
 C         -2.5267484869        2.9842465549       -1.5543373085
 C         -3.9980217393        3.4192849742       -1.6627408022
 C         -4.8221672970        3.2323438245       -0.3914276117
 H         -5.8642044809        3.4548954735       -0.6353496757
 H         -4.7764622759        2.1853785695       -0.0863155979
 C         -4.4180255877        4.1207272149        0.7824094787
 H         -4.5157277134        5.1682574550        0.4889503165
 H         -5.1280807538        3.9338157050        1.5919336950
 C         -3.0062411190        3.9026755329        1.3295849738
 H         -2.9408967563        4.4311551954        2.2853679354
 H         -2.2595462628        4.3495163122        0.6785853739
 C         -2.6483917668        2.4472640432        1.6154176565
 H         -3.4118479044        2.0111014877        2.2702219648
 H         -1.7195378811        2.4252636692        2.2003916266
 H         -4.4657128652        2.8247911060       -2.4510515736
 H         -4.0260878946        4.4667210129       -1.9672300033
 H         -1.9237345152        3.7527206296       -1.0793271812
 H         -2.1321909664        2.8314584299       -2.5612789308
 O         -2.1327673199        0.6783025674       -1.7233073505
 C         -1.9387636311       -0.6322241812       -1.3321416158
 O         -1.7055292315       -1.4225358209       -2.2675481453
 O         -2.3251356802       -0.1707550503        2.2314824103
 C         -1.7773240984       -2.3526179556        0.4822327218
 C         -0.3810735340       -2.7851003007        0.1006047127
 C         -0.0629826117       -4.0937154382       -0.2404877959
 C          1.2398241788       -4.4359554921       -0.5609111568
 C          2.2461254465       -3.4886656650       -0.5561301580
 C          1.9367642112       -2.1734703889       -0.2219256504
 C          0.6378166738       -1.8413366009        0.1220999348
 H          0.4138974785       -0.8215906391        0.4000683046
 N          2.9255285456       -1.1777219906       -0.2698407970
 S          2.6792885418        0.3424306038        0.3989841143
 O          2.4085139039        0.2412044430        1.8176039457
 O          1.7069734029        1.0550243455       -0.3923001380
 C          4.2981335772        1.0435144957        0.1406951751
 C          4.6058493964        1.5525388162       -1.1068856330
 C          5.8714016444        2.0732065500       -1.3251632709
 C          6.8038713239        2.0755601631       -0.2981958027
 C          6.4802864512        1.5635120900        0.9491883455
 C          5.2162748447        1.0405735992        1.1736694606
 H          4.9159672616        0.6410709710        2.1289414064
 H          7.2057166667        1.5700949379        1.7465653545
 H          7.7877637274        2.4821684780       -0.4707106085
 H          6.1247079521        2.4748603965       -2.2930102517
 H          3.8447322340        1.5368482348       -1.8698202340
 H          3.8650279993       -1.5211678161       -0.1324668456
 H          3.2581456771       -3.7554425962       -0.8180197968
 H          1.4736540848       -5.4569032392       -0.8219686998
 H         -0.8358073835       -4.8447976064       -0.2570002408
 H         -1.8338417686       -2.3219621249        1.5819343220
 C         -2.8523661369       -3.2859484939       -0.0367924551
 C         -3.3007954978       -4.4611549742        0.7782688510
 C         -4.1987037876       -3.2722691747        0.6211623204
 H         -5.0771973666       -3.3628541761        0.0003137556
 H         -4.3272435344       -2.6114930523        1.4663307275
 H         -3.5670442452       -5.3725582596        0.2644709435
 H         -2.8302433839       -4.6135650611        1.7379616341
 H         -2.8230428750       -3.3883046481       -1.1157266743
