  62
        -98.93692693
 C          2.2591554977        0.7673762211       -0.5069243921
 C          1.3012942618        1.1945083880       -1.4597764806
 C          0.5518218785        2.4247408358       -1.1622943679
 C          0.7822376375        3.0526641401        0.0033527884
 C          0.0888060588        4.2731502367        0.5438913887
 C         -1.1129519304        3.8709233095        1.4174179401
 C         -2.4327159635        3.7283322119        0.6621632234
 H         -3.1735347385        3.3588796683        1.3753488760
 H         -2.7630490482        4.7108777169        0.3166928841
 C         -2.3782092713        2.7669888911       -0.5273953187
 H         -1.8008765172        1.8869459868       -0.2381925376
 H         -3.3952643702        2.4292681523       -0.7380094796
 C         -1.7884643792        3.4052266445       -1.7937067993
 H         -2.4685464829        3.2380635734       -2.6315202556
 H         -1.7290857000        4.4845437926       -1.6533801600
 C         -0.4182948627        2.8660727466       -2.2249657064
 H          0.0764358882        3.6170288724       -2.8510077404
 H         -0.5584614276        1.9809874977       -2.8535723678
 H         -0.8767667440        2.9190316898        1.9016057609
 H         -1.2453447850        4.6184979819        2.2028581312
 H         -0.2148997109        4.9346743642       -0.2626277037
 H          0.8177376094        4.7926285314        1.1698108502
 O          1.6946765567        2.6011954431        0.9040898496
 C          2.4195329984        1.4359361492        0.7060423937
 O          3.1600768289        1.1400450996        1.6644368296
 O          1.0790457881        0.5558214773       -2.5249334975
 C          2.9506813403       -0.5526796641       -0.8181585323
 C          1.9498235461       -1.6443329243       -0.5330688606
 C          1.6180205562       -2.6122984556       -1.4717564366
 C          0.5776709349       -3.4962009981       -1.2371813865
 C         -0.1753315443       -3.4027037128       -0.0799614973
 C          0.1641560132       -2.4499369805        0.8709449215
 C          1.2408598672       -1.6071472837        0.6606195703
 H          1.4862938977       -0.8596430439        1.4028789151
 N         -0.6977312276       -2.2584475142        1.9946527063
 S         -1.6581096557       -0.8900935489        1.7151610585
 O         -0.8511942587        0.2870341451        1.4775879523
 O         -2.5609120450       -0.8039898328        2.8431826103
 C         -2.5422137593       -1.3486256777        0.2441167866
 C         -3.7091869001       -2.0758776333        0.3740777129
 C         -4.3813470638       -2.4733024265       -0.7703823799
 C         -3.8743552997       -2.1418156051       -2.0181467552
 C         -2.7009095146       -1.4120483639       -2.1309248122
 C         -2.0237767527       -1.0107250704       -0.9903947072
 H         -1.1046041249       -0.4474273485       -1.0488131695
 H         -2.2983444251       -1.1539917755       -3.0973434112
 H         -4.3955611282       -2.4531880356       -2.9096597996
 H         -5.2943862875       -3.0403713896       -0.6864729064
 H         -4.0636292450       -2.3050263186        1.3655408021
 H         -0.1864506702       -2.1013632745        2.8541344750
 H         -1.0261938414       -4.0415115745        0.0912631680
 H          0.3265895926       -4.2377517190       -1.9793052179
 H          2.1566821109       -2.6444774719       -2.4070850952
 H          3.1247748682       -0.5439395566       -1.9062784025
 C          4.2935722410       -0.7513673418       -0.1390104012
 C          4.5067825125       -1.7265003354        0.9763464175
 C          5.0649088417       -2.0149549733       -0.3831444410
 H          6.1320194598       -1.9488822326       -0.5297228842
 H          4.5829769780       -2.7862735058       -0.9647112832
 H          5.1794520625       -1.4379887247        1.7695102833
 H          3.6631999986       -2.3080034873        1.3153501526
 H          4.8648741616        0.1686679700       -0.0852310480
