  62
        -98.94522653
 C         -2.4506011252       -1.1968852855       -0.0742068741
 C         -3.5382428705       -0.8361462612        0.7612241604
 C         -4.4405579717        0.1929050599        0.2354859633
 C         -4.2041633306        0.7314449069       -0.9745507074
 C         -5.0423519686        1.7787778127       -1.6561064241
 C         -4.7179054833        3.2155463600       -1.2244274164
 C         -5.1875300871        3.5945545326        0.1807106119
 H         -5.0930790782        4.6787879867        0.2675525493
 H         -6.2448631445        3.3501015808        0.2871492438
 C         -4.3879806397        2.9376215875        1.3146403588
 H         -3.4420757848        2.5572966437        0.9210211530
 H         -4.1399651500        3.6890824450        2.0676378812
 C         -5.1196556920        1.8025586834        2.0311257174
 H         -5.9992908507        2.1993400900        2.5426442646
 H         -4.4487238881        1.3867332961        2.7869177234
 C         -5.5646099768        0.6580125368        1.1113887716
 H         -5.8694677291       -0.1850126571        1.7361140590
 H         -6.4145976205        0.9706504886        0.5054841435
 H         -3.6386389320        3.3681723931       -1.3021486351
 H         -5.2000676019        3.8867285611       -1.9389785790
 H         -4.8433847749        1.6879549682       -2.7261320679
 H         -6.0988332725        1.5743118587       -1.4801614934
 O         -3.1521329722        0.3558396103       -1.7488321577
 C         -2.2408332344       -0.5978830789       -1.3162555624
 O         -1.3216132026       -0.8203570945       -2.1288776150
 O         -3.7467361425       -1.3552090176        1.8894140792
 C         -1.4722438341       -2.2400152529        0.4416376502
 C         -0.1623761080       -1.5497485311        0.7292724005
 C         -0.0117775160       -0.8498013641        1.9236317858
 C          1.1479788900       -0.1465264817        2.1879924531
 C          2.1782525330       -0.1164940783        1.2635849938
 C          2.0298000157       -0.7953904319        0.0623878015
 C          0.8733463242       -1.5218567358       -0.1909705220
 H          0.7676212823       -2.0343635060       -1.1339138450
 N          3.0636870473       -0.7610357453       -0.8892807674
 S          3.7621479390        0.7224625017       -1.2485413899
 O          2.8421405292        1.8180364783       -1.0460249885
 O          4.3029571692        0.5732894948       -2.5823378617
 C          5.1132445834        0.8364513580       -0.0919346499
 C          5.9896285904       -0.2277561206       -0.0057164440
 C          7.0518712504       -0.1498504617        0.8806272551
 C          7.2216321593        0.9854857810        1.6590789624
 C          6.3356454404        2.0469960919        1.5582046408
 C          5.2700894305        1.9748411727        0.6741795815
 H          4.5520306339        2.7724361787        0.5669371994
 H          6.4687244690        2.9291429019        2.1637212341
 H          8.0489198002        1.0433542148        2.3486642630
 H          7.7425419415       -0.9736177476        0.9621701316
 H          5.8235463715       -1.0905317448       -0.6287663842
 H          2.8390989740       -1.2593730083       -1.7388525001
 H          3.0802576920        0.4408867117        1.4566161928
 H          1.2521683551        0.3874830395        3.1202829804
 H         -0.8251338005       -0.8541884725        2.6359168909
 H         -1.8940977916       -2.5838193225        1.3956574932
 C         -1.3539288778       -3.4251891867       -0.4927785735
 C         -0.7227111839       -4.6900233198        0.0050544741
 C         -2.1989800007       -4.6373774998       -0.2458031960
 H         -2.5981960275       -5.1676415499       -1.0974440383
 H         -2.8629329902       -4.6178817114        0.6058487021
 H         -0.1059399199       -5.2605552705       -0.6723390798
 H         -0.3828477544       -4.7048979865        1.0294252485
 H         -1.1860553369       -3.1447775249       -1.5256087268
