  62
        -98.93458837
 C          2.3003240149        0.8248171277        0.1743722477
 C          3.0828856213        0.1994108882        1.1781576221
 C          4.0094201078       -0.8596449159        0.7443480161
 C          4.0566954364       -1.1858148566       -0.5585043139
 C          4.9582343627       -2.1889843912       -1.2233608236
 C          6.2331144566       -1.5090490832       -1.7510035192
 C          7.3742171753       -1.4062118217       -0.7397425065
 H          7.7905025019       -2.4008162719       -0.5667837717
 H          8.1584231566       -0.7977265780       -1.1960619784
 C          6.9984230699       -0.7916114550        0.6110740987
 H          7.9158263814       -0.4346873996        1.0830965242
 H          6.3570319135        0.0776170804        0.4541258699
 C          6.3076505740       -1.7862121969        1.5559415364
 H          6.4197049790       -2.7940481302        1.1567541083
 H          6.8150133853       -1.7782575498        2.5228251430
 C          4.8245128496       -1.5019023199        1.8334705974
 H          4.7376155648       -0.8171213546        2.6829259694
 H          4.3322005999       -2.4329904678        2.1335334425
 H          6.5967245433       -2.0689122492       -2.6150979259
 H          5.9595382520       -0.5102797341       -2.1011558829
 H          5.1978649269       -3.0016892088       -0.5442279814
 H          4.4021889931       -2.5917550988       -2.0725899585
 O          3.2803004867       -0.5708726347       -1.4910814793
 C          2.3880062323        0.4393010950       -1.1632426591
 O          1.7565359672        0.8802583046       -2.1428984795
 O          3.0177627687        0.5260910662        2.3936314498
 C          1.3667416540        1.9307824605        0.6333955101
 C         -0.0229083665        1.4102137053        0.8985546985
 C         -0.6860158623        1.7106204201        2.0823187687
 C         -1.9709981024        1.2473772723        2.3064257480
 C         -2.6183430756        0.4754739876        1.3585249375
 C         -1.9642348962        0.1688469460        0.1722921016
 C         -0.6767748073        0.6355892662       -0.0497467627
 H         -0.1776845352        0.4052190789       -0.9799938756
 N         -2.6094386723       -0.6236557078       -0.7951462802
 S         -4.1254793245       -0.1183875515       -1.3176777055
 O         -4.2823564285       -0.6808862080       -2.6408472340
 O         -4.2696720074        1.3147764695       -1.2054046116
 C         -5.2501833586       -0.9348675722       -0.2046986050
 C         -5.1826801869       -2.3109799206       -0.1069681426
 C         -6.0551208505       -2.9641860776        0.7487429776
 C         -6.9767959677       -2.2348864450        1.4854803422
 C         -7.0343826362       -0.8542028755        1.3731442171
 C         -6.1636956906       -0.1943516577        0.5195955611
 H         -6.1674380536        0.8776722474        0.4032909838
 H         -7.7519528799       -0.2893639741        1.9462360846
 H         -7.6543750540       -2.7462426868        2.1508322790
 H         -6.0134961479       -4.0377420104        0.8387742060
 H         -4.4541602023       -2.8392557159       -0.6993594118
 H         -2.0206272354       -0.8346168631       -1.5887819559
 H         -3.6185375096        0.1113012610        1.5271279816
 H         -2.4739488685        1.4881993043        3.2303688917
 H         -0.1836649384        2.3036635687        2.8323872578
 H          1.7826268040        2.2614161566        1.5982631846
 C          1.3717605112        3.1367433030       -0.2975812134
 C          0.2131722137        3.5321902852       -1.1586717870
 C          0.5646677896        4.3545751587        0.0425873722
 H          1.0069695729        5.3279776655       -0.1052333711
 H         -0.0941706619        4.2910473957        0.8954255233
 H          0.4321840541        3.9210391443       -2.1417003104
 H         -0.6856637367        2.9355246401       -1.1249485308
 H          2.3563095657        3.3116901841       -0.7204391316
