  62
        -98.94993880
 C         -2.0390316157       -0.7809247249       -0.2165788808
 C         -2.6738701051        0.2017841283        0.5789765092
 C         -2.6815405054        1.5656530610        0.0343792010
 C         -2.1038417494        1.8021678932       -1.1572158419
 C         -2.0313403837        3.1428297499       -1.8280397780
 C         -0.7356299886        3.8863047360       -1.4793759882
 C         -0.4335249937        3.9432788046        0.0182712755
 H         -0.1875639557        2.9424010855        0.3810020800
 H          0.4673860480        4.5490560699        0.1444682296
 C         -1.5634298614        4.5302546641        0.8758652129
 H         -1.1240068496        5.2144406022        1.6049610642
 H         -2.2426491620        5.1127471633        0.2514695221
 C         -2.3613694168        3.4929407946        1.6688503931
 H         -1.6670071506        2.8255902184        2.1871996403
 H         -2.9428700641        4.0194431559        2.4309788088
 C         -3.3410880200        2.6364853741        0.8558011399
 H         -3.9612431471        3.2809937800        0.2287125043
 H         -3.9930680860        2.1139059104        1.5622028744
 H          0.0990748124        3.3848748783       -1.9748787894
 H         -0.8070368167        4.9015830943       -1.8752402762
 H         -2.8932999450        3.7362804098       -1.5289273368
 H         -2.0675549817        2.9853456462       -2.9076910171
 O         -1.4969314463        0.8349098088       -1.8899763548
 C         -1.4264560949       -0.4722260375       -1.4295842641
 O         -0.8069720034       -1.2468726126       -2.1839970116
 O         -3.2172103452       -0.0540398219        1.6885023006
 C         -1.9464873699       -2.2065953609        0.2986877718
 C         -0.4945073098       -2.5663177258        0.5005809945
 C          0.0869711120       -3.7383273435        0.0351867260
 C          1.4361031190       -3.9768949273        0.2358304329
 C          2.2322365028       -3.0523254284        0.8866362520
 C          1.6568173805       -1.8816049316        1.3679768097
 C          0.3011883150       -1.6601968794        1.1911780747
 H         -0.1362586183       -0.7487983612        1.5718621115
 N          2.4261722781       -0.9106602954        2.0403132958
 S          2.4414227982        0.6529212644        1.4414678816
 O          3.4020696603        1.3547838157        2.2644433245
 O          1.1055580080        1.1871739416        1.4178902873
 C          3.0848431612        0.4871545951       -0.2124120436
 C          2.2380565240        0.0692872144       -1.2184764225
 C          2.7540564990       -0.1351305259       -2.4883711900
 C          4.1018891446        0.0816951625       -2.7294777009
 C          4.9405377325        0.5037965472       -1.7081763021
 C          4.4311952317        0.7035330413       -0.4354113771
 H          5.0439247232        1.0329880600        0.3881955691
 H          5.9878745834        0.6736048774       -1.8994946299
 H          4.4988030452       -0.0796126825       -3.7193144598
 H          2.0888224377       -0.4679738827       -3.2694753387
 H          1.1930977977       -0.0939423586       -1.0079156323
 H          3.3738640315       -1.2039720523        2.2340201471
 H          3.2876199255       -3.2321291736        1.0252807461
 H          1.8765371310       -4.8901431064       -0.1340997931
 H         -0.5135426284       -4.4620141494       -0.4908049907
 H         -2.4364691882       -2.1934742171        1.2839002392
 C         -2.6935083141       -3.1615011957       -0.6074319594
 C         -3.2807850746       -4.4233320170       -0.0514063408
 C         -4.1780669187       -3.2926896451       -0.4532775542
 H         -4.7811173832       -3.4005153778       -1.3422450103
 H         -4.6488723314       -2.7087760970        0.3243239399
 H         -3.2721789755       -5.3110575849       -0.6655485647
 H         -3.1485637229       -4.6137841559        1.0029497077
 H         -2.2922230244       -3.1807586277       -1.6142292509
