  62
        -98.93726740
 C         -1.1804160583       -0.8091633088        0.5897330304
 C         -1.8688773762       -0.6015838985       -0.6289551689
 C         -2.8526237601        0.4981535546       -0.6443271929
 C         -2.9853831534        1.2789106405        0.4407562638
 C         -3.9582459942        2.4068821230        0.6456144778
 C         -5.2375150965        1.9019858032        1.3347844441
 C         -6.3113352462        1.3665915335        0.3882482015
 H         -7.0969061561        0.9249005453        1.0055871807
 H         -6.7546493005        2.2013509099       -0.1586001898
 C         -5.8331324055        0.3201408025       -0.6217512879
 H         -5.1684728247       -0.3913284659       -0.1285054529
 H         -6.7067753359       -0.2376556020       -0.9642163611
 C         -5.1284053445        0.9345931496       -1.8404531467
 H         -5.3128150808        2.0087617597       -1.8540253988
 H         -5.5712787819        0.5332714027       -2.7542679430
 C         -3.6173234476        0.6703369246       -1.9283922183
 H         -3.4406075312       -0.2566743383       -2.4831593183
 H         -3.1454735712        1.4721305009       -2.5070288095
 H         -4.9493206885        1.1222390429        2.0446413962
 H         -5.6719509332        2.7221125559        1.9099720709
 H         -3.4659374206        3.1259532440        1.3041072287
 H         -4.1842119431        2.8963374436       -0.2972092072
 O         -2.2422511437        1.0968563506        1.5668749535
 C         -1.3203361103        0.0715228646        1.6641418628
 O         -0.6873896569        0.0516953634        2.7397457283
 H          0.9949990809        0.2769152356       -0.2274278992
 C          1.3509108118       -0.5983600104       -0.7488121273
 C          0.8353402129       -1.8439683842       -0.4153403795
 C          1.2686310999       -2.9520627935       -1.1306476104
 C          2.1895723455       -2.8034727187       -2.1541103642
 C          2.7113477482       -1.5628999025       -2.4717800805
 C          2.2797532268       -0.4466822791       -1.7632605465
 N          2.7711462759        0.8345621985       -2.0517923400
 S          2.9039059158        1.9747192619       -0.8406434833
 O          1.6066837630        2.5015813873       -0.4938018397
 O          3.8528405935        2.9352961830       -1.3631344296
 C          3.6301782455        1.1067567535        0.5393066055
 C          2.9079273555        0.8809570642        1.6928099730
 C          3.4979394507        0.1663978854        2.7239783721
 C          4.7937471487       -0.3052240965        2.5865311575
 C          5.5112699791       -0.0613202627        1.4249193422
 C          4.9252666400        0.6481529946        0.3901768638
 H          5.4543394250        0.8666833870       -0.5230311134
 H          6.5211392651       -0.4242663117        1.3228099131
 H          5.2460172141       -0.8631819382        3.3911002842
 H          2.9310037954       -0.0202159379        3.6223933371
 H          1.8984742576        1.2538738579        1.7765695966
 H          3.5378996616        0.8696044622       -2.7063211514
 H          3.4310052490       -1.4525886804       -3.2681607469
 H          2.5107451802       -3.6708000784       -2.7106222017
 H          0.8720565092       -3.9280224293       -0.9045295553
 C         -0.1341102129       -1.8994540401        0.7409380874
 H          0.4310335562       -1.6152774383        1.6452722311
 C         -0.6952661718       -3.2890962261        1.0056763478
 C         -2.0857552432       -3.4782302818        1.5331997519
 C         -1.7483571105       -3.9093122702        0.1391311516
 H         -1.6840911643       -4.9680544713       -0.0660044991
 H         -2.1197334191       -3.3234939282       -0.6860733894
 H         -2.2507855493       -4.2358309040        2.2848220779
 H         -2.6965580210       -2.5958550944        1.6614623656
 H          0.0586921577       -3.9593066125        1.4067375416
 O         -1.6881434262       -1.2970796597       -1.6621049937
