  62
        -98.94685119
 C          1.7927331067        1.3436285633       -0.0544236622
 C          2.8856486513        0.6426784268        0.5125808319
 C          3.2784734094       -0.6034818530       -0.1562499643
 C          2.5886419772       -1.0163269291       -1.2345991741
 C          2.8578752811       -2.2821365072       -1.9946976267
 C          2.0067218800       -3.4434499538       -1.4645004819
 C          2.0585123322       -3.6071023890        0.0546238002
 H          1.5599617317       -2.7524530889        0.5194186281
 H          1.4608574651       -4.4870189013        0.3053789887
 C          3.4718618091       -3.7681708678        0.6322707196
 H          3.4532001459       -4.5701054365        1.3734541683
 H          4.1614232529       -4.0716044923       -0.1567569287
 C          4.0219144516       -2.5266786139        1.3372929131
 H          3.2796081090       -2.1556420268        2.0492827902
 H          4.9053454586       -2.8237305551        1.9092568213
 C          4.4358391596       -1.3659815572        0.4237465297
 H          5.0927353808       -1.7351554734       -0.3666289511
 H          4.9957377743       -0.6480426179        1.0304872362
 H          0.9651718099       -3.2684444715       -1.7446696507
 H          2.3420898429       -4.3649098563       -1.9451595870
 H          2.6093534369       -2.1119542880       -3.0439385452
 H          3.9153585477       -2.5279355995       -1.9167596049
 O          1.5353136917       -0.3308772310       -1.7405175625
 C          1.0815227730        0.8342406086       -1.1411855420
 O          0.0631446977        1.3101959267       -1.6787693862
 O          3.5035881427        1.0424535007        1.5372539600
 C          1.3111567324        2.5997031916        0.6520883773
 C         -0.1773083529        2.4998082305        0.8743163439
 C         -1.0947171484        3.4751498633        0.5075152919
 C         -2.4495060405        3.2768234542        0.7162676452
 C         -2.9188390599        2.0962348831        1.2618298071
 C         -2.0068138746        1.1145295603        1.6319817618
 C         -0.6511077932        1.3374750624        1.4710948285
 H          0.0450293666        0.5653239084        1.7664029845
 N         -2.4201621425       -0.1337119329        2.1478569280
 S         -2.1273011286       -1.4581343357        1.1568382567
 O         -2.6219656632       -2.6015411282        1.8945043319
 O         -0.7384652602       -1.4925064896        0.7823373618
 C         -3.1794281115       -1.1737258165       -0.2558340484
 C         -4.4169581320       -1.7890705429       -0.2856753319
 C         -5.2797612234       -1.5142689876       -1.3336164144
 C         -4.8965891493       -0.6220848611       -2.3242437776
 C         -3.6537944160       -0.0103237835       -2.2764949973
 C         -2.7813462519       -0.2835837416       -1.2329730724
 H         -1.8078803724        0.1804026002       -1.1833670582
 H         -3.3478233001        0.6847516838       -3.0419415753
 H         -5.5689695951       -0.4022718353       -3.1385157555
 H         -6.2456702703       -1.9916099229       -1.3728039548
 H         -4.6688674544       -2.4755178255        0.5067044080
 H         -3.3891296602       -0.1523191669        2.4375055075
 H         -3.9774684905        1.9286971464        1.3927860871
 H         -3.1511612680        4.0436325099        0.4254503977
 H         -0.7535033123        4.3824973724        0.0369086727
 H          1.8033701822        2.5599628976        1.6391012670
 C          1.7486586765        3.9038614297        0.0033599440
 C          2.9625158066        3.9604206475       -0.8739920998
 C          1.6007361325        4.1563700094       -1.4661041723
 H          1.3231036270        5.1490219534       -1.7892553635
 H          1.1811598686        3.3655344498       -2.0670814425
 H          3.6176508000        4.8144089961       -0.7882888818
 H          3.4785137787        3.0321738350       -1.0736629527
 H          1.5963661140        4.7542080762        0.6610857429
