  62
        -98.93890563
 C          2.0493157892        0.4441023941       -0.2506084330
 C          3.0544037115        0.8816649531        0.6445526954
 C          4.2615300995        0.0442538335        0.7500174574
 C          4.3465639025       -1.0836588999        0.0201131816
 C          5.4188324495       -2.1514562815       -0.0449541597
 C          6.7987772089       -1.9119552191        0.5619610960
 C          7.6368359066       -0.8535362552       -0.1547271045
 H          8.5496775752       -0.6916251384        0.4226201625
 H          7.9273473494       -1.2452941108       -1.1328643683
 C          6.9479614399        0.4895081111       -0.3830828342
 H          7.6504937509        1.1397132792       -0.9114859104
 H          6.0839847133        0.3519742820       -1.0364290022
 C          6.5022675829        1.2189285154        0.8825423111
 H          6.1742632865        2.2192439819        0.5874454807
 H          7.3509774013        1.3320885620        1.5598305546
 C          5.3446451821        0.5610149309        1.6529065595
 H          4.8796438466        1.3262520320        2.2812024604
 H          5.7044203873       -0.2259943314        2.3113238307
 H          7.3375707367       -2.8609931338        0.4931489520
 H          6.7097963999       -1.6779352857        1.6186950046
 H          4.9814124355       -3.0377704936        0.4281285945
 H          5.5321830559       -2.3953888060       -1.1061497831
 O          3.3405516799       -1.4762659550       -0.8150378121
 C          2.1800820331       -0.7367475060       -0.9785589151
 O          1.3742142807       -1.2319785862       -1.7892192817
 O          2.9471120689        1.9299563807        1.3352278199
 C          0.7854455233        1.2783354436       -0.3786997862
 C         -0.3580015986        0.4973119612        0.2190073909
 C         -0.4865720519        0.4459794424        1.6047343169
 C         -1.4877730013       -0.3015413435        2.1950261105
 C         -2.3816824826       -1.0163670435        1.4166655476
 C         -2.2627889714       -0.9697289143        0.0341666785
 C         -1.2646331521       -0.2059432456       -0.5582932456
 H         -1.1755898799       -0.1936264678       -1.6328037807
 N         -3.1641551757       -1.6932039813       -0.7617633387
 S         -4.7873926102       -1.6593562117       -0.3709355998
 O         -5.0515264297       -2.5807275132        0.7066198440
 O         -5.4819353257       -1.9243806327       -1.6113952577
 C         -5.0993056452        0.0108092941        0.1750148482
 C         -4.8723610102        1.0394727629       -0.7179870398
 C         -5.0788635790        2.3448357632       -0.3033310360
 C         -5.5048823526        2.5986959131        0.9916593528
 C         -5.7325307659        1.5550858889        1.8748059643
 C         -5.5267271685        0.2471296807        1.4654656297
 H         -5.6903091836       -0.5935189532        2.1199011499
 H         -6.0659382817        1.7550113309        2.8803672605
 H         -5.6610048438        3.6164733856        1.3127839199
 H         -4.9038436515        3.1581824909       -0.9891003713
 H         -4.5470425723        0.8081097633       -1.7194551327
 H         -3.0077785648       -1.6012923012       -1.7539597903
 H         -3.1563602981       -1.6214991720        1.8588578659
 H         -1.5725021553       -0.3336302485        3.2705753333
 H          0.2209751234        0.9920116432        2.2128947689
 H          0.9588090781        2.1623338000        0.2496286523
 C          0.5466639177        1.7319280970       -1.8031303677
 C         -0.4244328928        2.8428945244       -2.0660417503
 C          1.0460261838        3.0767904192       -2.2348846503
 H          1.4421191598        3.1818098567       -3.2339410738
 H          1.5566981815        3.6798744030       -1.4986153096
 H         -1.0404645413        2.7921994926       -2.9508230945
 H         -0.9121878560        3.2869774028       -1.2117975707
 H          0.6101572279        0.9277153555       -2.5262968426
