  62
        -98.94365850
 C          1.7946069399        0.3763927446       -0.3055902297
 C          2.9679869877        0.7053043006       -1.0243579422
 C          4.2242412153        0.6425934348       -0.2657234154
 C          4.1884539923        0.3107405284        1.0380534250
 C          5.3958159101        0.1640159893        1.9174111552
 C          5.9163476595       -1.2801262650        1.9101212579
 C          6.0839950410       -1.8685918977        0.5092399506
 H          6.4842759848       -2.8779801890        0.6260677772
 H          5.1007794549       -1.9645860389        0.0431297435
 C          7.0041852866       -1.0577395702       -0.4139162186
 H          7.6238397859       -0.3839120140        0.1788754425
 H          7.6767207091       -1.7457321908       -0.9306400051
 C          6.2734298624       -0.2558274760       -1.4925335182
 H          5.5812541782       -0.9095155202       -2.0292710352
 H          7.0146751691        0.0979934663       -2.2141608750
 C          5.4941508473        0.9701527113       -0.9997965453
 H          5.1912913571        1.5463979763       -1.8791546367
 H          6.1445514019        1.5972865696       -0.3865314309
 H          5.2101258946       -1.9050365357        2.4614593153
 H          6.8734314512       -1.3047589625        2.4343306761
 H          6.1736887233        0.8435173329        1.5745628826
 H          5.1132756548        0.4340577528        2.9363047611
 O          3.0389147966        0.0221520782        1.6995996957
 C          1.8145258853        0.0366100272        1.0473002852
 O          0.8439535117       -0.2612991287        1.7674626478
 O          2.9636627068        1.0417539923       -2.2397447274
 C          0.4587973135        0.4052399257       -1.0247670808
 C         -0.4854690753        1.3651768247       -0.3449247942
 C         -0.0260834897        2.6332538307        0.0033845962
 C         -0.8572535827        3.5368537755        0.6348543606
 C         -2.1695583518        3.2021437465        0.9205242781
 C         -2.6428148031        1.9456142761        0.5658313972
 C         -1.8019005068        1.0370428112       -0.0636068746
 H         -2.1887407782        0.0691935628       -0.3334956490
 N         -3.9596375869        1.5684497164        0.8606371509
 S         -4.8277338158        0.5996672916       -0.1862011593
 O         -4.5189869732        0.8924329849       -1.5664698667
 O         -6.2084593003        0.7913957925        0.2049759312
 C         -4.3437135894       -1.0672496793        0.2108096756
 C         -4.0853913964       -1.4033414683        1.5246638859
 C         -3.7430179162       -2.7121019817        1.8247905422
 C         -3.6729067142       -3.6592845224        0.8146236186
 C         -3.9428583967       -3.3076611121       -0.4987670735
 C         -4.2823033108       -1.9994373560       -0.8062054526
 H         -4.4891019627       -1.6792379807       -1.8152210282
 H         -3.8882371314       -4.0459938360       -1.2831716111
 H         -3.4038762558       -4.6765548826        1.0519253973
 H         -3.5272861994       -2.9876426791        2.8446122934
 H         -4.1413856435       -0.6432691397        2.2857909962
 H         -4.5314643226        2.2839217038        1.2842067514
 H         -2.8198010153        3.9063828967        1.4168897714
 H         -0.4834908737        4.5132689648        0.9047361653
 H          0.9981388476        2.8980264968       -0.2221504693
 H          0.6750385980        0.7962656012       -2.0306924137
 C         -0.0931514917       -0.9988683744       -1.1575859188
 C         -0.9815724820       -1.3592306118       -2.3092764549
 C          0.4233437048       -1.8773088456       -2.2560373134
 H          0.5793527112       -2.9252016446       -2.0488195014
 H          1.1535368569       -1.4511294762       -2.9285876555
 H         -1.7899596361       -2.0528275132       -2.1346991398
 H         -1.2154165714       -0.5838518243       -3.0233743468
 H         -0.2890825458       -1.4609827565       -0.1960737587
