  62
        -98.94762362
 C         -1.8302781117       -1.3415007676       -0.0990679706
 C         -2.9368869611       -0.6228272070        0.4172290797
 C         -3.2566670000        0.6419649437       -0.2510220496
 C         -2.5083010696        1.0545945236       -1.2897338193
 C         -2.6889814284        2.3339280842       -2.0594416886
 C         -2.0048911975        3.5365555933       -1.3945262679
 C         -2.7145575472        4.0778731432       -0.1527166777
 H         -2.2730314064        5.0516310627        0.0689246629
 H         -3.7702576470        4.2396281942       -0.3757401977
 C         -2.5765895781        3.1853981624        1.0888392719
 H         -1.7378039486        2.4978104318        0.9493310216
 H         -2.3302130477        3.8048429217        1.9551856922
 C         -3.8343849988        2.3916549232        1.4456477713
 H         -4.6317884283        3.0816225137        1.7323528015
 H         -3.6057281794        1.7632346225        2.3105156109
 C         -4.3557516294        1.4826302943        0.3250115607
 H         -5.1029338000        0.8087366446        0.7521426002
 H         -4.8272204388        2.0799460151       -0.4551061490
 H         -1.9495127768        4.3368679536       -2.1364968674
 H         -0.9834266078        3.2522577723       -1.1271169379
 H         -3.7509054582        2.5417479252       -2.1941688386
 H         -2.2352334184        2.1767735944       -3.0403358287
 O         -1.4732018301        0.3255626630       -1.7758701996
 C         -1.0702487211       -0.8492119276       -1.1607516502
 O         -0.0480804415       -1.3534492882       -1.6652396903
 O         -3.6163345516       -1.0156203070        1.4046700394
 C         -1.3749486428       -2.5796205584        0.6548412388
 C          0.1009611173       -2.4546758798        0.9433282791
 C          1.0389155965       -3.4451158704        0.6852577786
 C          2.3818941967       -3.2239437816        0.9428068589
 C          2.8205430076       -2.0064238023        1.4293536996
 C          1.8877145084       -1.0096756216        1.6920819301
 C          0.5420215582       -1.2526842104        1.4849826898
 H         -0.1687434412       -0.4668772600        1.6986733701
 N          2.2702410694        0.2747483978        2.1394441208
 S          2.0439717105        1.5178246186        1.0317400615
 O          2.5051720514        2.7142919278        1.7040749922
 O          0.6790205206        1.5292552300        0.5764661913
 C          3.1741218804        1.1155608384       -0.2886607286
 C          2.8180060797        0.1650522892       -1.2240276592
 C          3.7493634995       -0.2013016710       -2.1849347793
 C          5.0077598500        0.3794322279       -2.1927798888
 C          5.3479728207        1.3336659971       -1.2451365082
 C          4.4260322809        1.7019121874       -0.2795245381
 H          4.6428253714        2.4395405968        0.4764297423
 H          6.3261927610        1.7868406663       -1.2539792178
 H          5.7262403898        0.0868780078       -2.9422607589
 H          3.4768920090       -0.9440189804       -2.9175403897
 H          1.8316867293       -0.2734531600       -1.2059582895
 H          3.2210776194        0.3176773368        2.4818931210
 H          3.8712727477       -1.8221168332        1.5966713299
 H          3.0993543960       -4.0032663121        0.7360344686
 H          0.7239192658       -4.3841488299        0.2607552881
 H         -1.9136210829       -2.5219209685        1.6165443088
 C         -1.7686044838       -3.9042033277        0.0198556580
 C         -2.9134653237       -3.9880141962       -0.9438953322
 C         -1.5120714239       -4.2067584971       -1.4250818721
 H         -1.2157463247       -5.2105444872       -1.6926230426
 H         -1.0450430732       -3.4369024772       -2.0181723016
 H         -3.5778878545       -4.8366278757       -0.8787547927
 H         -3.4077154330       -3.0655147657       -1.2131461517
 H         -1.6704319046       -4.7324796482        0.7150000976
