  62
        -98.94532507
 C         -1.7022306896       -0.8390775501        0.1786502603
 C         -2.7745099098       -0.5726913695        1.0628834798
 C         -3.5044318695        0.6784963306        0.8277836291
 C         -3.1099452689        1.5063948501       -0.1567516911
 C         -3.7385118185        2.8279841501       -0.5066036819
 C         -4.9621594082        2.7116189300       -1.4259484523
 C         -6.2250350486        2.1602640806       -0.7628182625
 H         -6.4331406287        2.7251649610        0.1465011072
 H         -7.0524004083        2.3383281705       -1.4526214428
 C         -6.1676680790        0.6608850407       -0.4384534118
 H         -5.3599064390        0.1952920603       -1.0078114714
 H         -7.0980027891        0.1841020508       -0.7550502719
 C         -5.9765900296        0.3395769213        1.0438653584
 H         -5.9118483399       -0.7460046587        1.1537780489
 H         -6.8458955397        0.6831099017        1.6090017980
 C         -4.7160265697        0.9546603312        1.6657320885
 H         -4.8493054795        2.0277104713        1.8031356381
 H         -4.5560064201        0.4939530316        2.6438995788
 H         -5.1830808278        3.7133999999       -1.8015906928
 H         -4.6977388981        2.0865227496       -2.2819299119
 H         -4.0165060187        3.3561000805        0.4061440478
 H         -2.9729902582        3.4098810997       -1.0247654519
 O         -2.0460903887        1.2353428195       -0.9586331107
 C         -1.3338467091        0.0470120894       -0.8344182999
 O         -0.4106185488       -0.0817967912       -1.6574464196
 O         -3.1022695903       -1.3412402390        2.0073873800
 C         -0.9388756300       -2.1398155502        0.3293606611
 C          0.5402274200       -1.9190124005        0.5353417015
 C          1.4877950999       -2.8518984709        0.1283401722
 C          2.8360246999       -2.6323651612        0.3505284626
 C          3.2736817200       -1.4732913710        0.9642356622
 C          2.3365720801       -0.5281485106        1.3611100015
 C          0.9841810501       -0.7648778604        1.1655191012
 H          0.2626285101       -0.0258622901        1.4917797806
 N          2.7717207002        0.6768532495        1.9380691712
 S          4.0744375306        1.4478973789        1.2182449613
 O          5.2993996603        0.9408218488        1.7874906019
 O          3.8342329209        2.8609523090        1.4181788506
 C          4.0134196711        1.0333921082       -0.5174046786
 C          2.8283770313        1.2011418182       -1.2048008790
 C          2.7722573317        0.8487040877       -2.5430435989
 C          3.9020236418        0.3501839571       -3.1729210683
 C          5.0900660015        0.2019150971       -2.4737034179
 C          5.1473353112        0.5399744577       -1.1314555680
 H          6.0440434409        0.4235812977       -0.5445305776
 H          5.9673969916       -0.1848637233       -2.9666499174
 H          3.8524119421        0.0731029267       -4.2141390382
 H          1.8352263619        0.9435197977       -3.0677403493
 H          1.9537778513        1.5823324686       -0.7018470795
 H          2.0265064903        1.3315495598        2.1249417206
 H          4.3199643100       -1.2827785312        1.1412662525
 H          3.5571730298       -3.3702009715        0.0348003831
 H          1.1672389199       -3.7547704410       -0.3648380075
 H         -1.3417897204       -2.6090713498        1.2403854312
 C         -1.2334505198       -3.0452403507       -0.8521873986
 C         -1.3657918702       -4.5270577506       -0.6710877580
 C         -2.5812765499       -3.6942470604       -0.9422102688
 H         -3.0574171096       -3.7674700207       -1.9084957889
 H         -3.2704673902       -3.5149913799       -0.1295313091
 H         -1.0070517401       -5.1758402810       -1.4559865177
 H         -1.2411761407       -4.9251947202        0.3246881322
 H         -0.7929815294       -2.6782781212       -1.7725353786
