  62
        -98.94518218
 C         -2.2697732423       -0.7182255586       -0.0121266184
 C         -3.2821267193       -0.6751198047        0.9798419784
 C         -4.1629394071        0.4967208209        0.9500691077
 C         -3.9468728711        1.4696347843        0.0463249685
 C         -4.7396355916        2.7409996533       -0.0920152141
 C         -6.0209851385        2.5900008223       -0.9237021614
 C         -7.1548656622        1.8251355993       -0.2396011374
 H         -7.3396325604        2.2562030399        0.7447819038
 H         -8.0539123151        1.9832470158       -0.8385548494
 C         -6.9103838962        0.3155904226       -0.1057118000
 H         -7.8086853440       -0.2269711025       -0.4086770213
 H         -6.1103152144        0.0146477582       -0.7859744400
 C         -6.5572754214       -0.1465874734        1.3080099364
 H         -7.4049674871        0.0298087210        1.9736790789
 H         -6.3693098234       -1.2227936571        1.2793318798
 C         -5.3185338742        0.5348989010        1.9041152830
 H         -5.5504452070        1.5633201986        2.1799104342
 H         -5.0247834400       -0.0117839337        2.8034196160
 H         -5.7685519995        2.1013960788       -1.8676907194
 H         -6.3781249497        3.5959893582       -1.1558819704
 H         -4.9892431751        3.1267073396        0.8968540842
 H         -4.0870429505        3.4607203356       -0.5911878048
 O         -2.9374750440        1.4123648401       -0.8622551586
 C         -2.0887413389        0.3159054332       -0.9304838119
 O         -1.2399189507        0.3922585463       -1.8406167558
 H          0.7999612663       -1.2334134434       -1.6065799885
 C          1.0091391852       -1.1350079210       -0.5532930439
 C          0.0361084525       -1.4633902874        0.3769693059
 C          0.3217744968       -1.2929532532        1.7290934173
 C          1.5521139875       -0.8122680763        2.1348096883
 C          2.5203879693       -0.4813363554        1.2021340313
 C          2.2378470063       -0.6291431661       -0.1484176522
 N          3.2079274853       -0.2860925553       -1.1054522642
 S          4.0308149148        1.1655306111       -0.9271365529
 O          3.2462627730        2.1504317353       -0.2187647876
 O          4.4617826476        1.5223026802       -2.2615554166
 C          5.4615103675        0.7140891724        0.0349427129
 C          6.2445363945       -0.3310358675       -0.4151251399
 C          7.3653341388       -0.6909354455        0.3157496798
 C          7.6850732866       -0.0016874650        1.4761215343
 C          6.8915984326        1.0479651762        1.9126287273
 C          5.7681348947        1.4121690043        1.1864537550
 H          5.1186750651        2.2178167310        1.4906280017
 H          7.1416326499        1.5834426822        2.8144309431
 H          8.5577698160       -0.2839799154        2.0435801223
 H          7.9846542559       -1.5067282782       -0.0206766661
 H          5.9632321842       -0.8385002654       -1.3225782589
 H          2.8864353121       -0.3964077745       -2.0567179050
 H          3.4775396554       -0.0938775638        1.5104779741
 H          1.7609698553       -0.6899509898        3.1867623282
 H         -0.4416544964       -1.5306933077        2.4567660300
 C         -1.3413666354       -1.9218139862       -0.0315240695
 H         -1.7230559788       -2.5926512328        0.7499153452
 C         -1.3798809103       -2.6490747702       -1.3590848351
 C         -0.8088282336       -4.0314613125       -1.4540273152
 C         -2.2915715479       -3.8266746908       -1.5218835558
 H         -2.7897694921       -3.9640769195       -2.4699707895
 H         -2.8881727767       -4.1176324840       -0.6698227954
 H         -0.2867991574       -4.3134425324       -2.3555614281
 H         -0.3966890291       -4.4605059441       -0.5534376407
 H         -1.2668570532       -1.9921555336       -2.2131677610
 O         -3.4408867028       -1.5743240562        1.8470545855
