  62
        -98.94353374
 C          1.8485767499        0.2957681611       -0.2563473801
 C          2.9807426998        0.5368779015       -1.0701870602
 C          4.2702524598        0.5855627020       -0.3724118002
 C          4.3120091399        0.4285214421        0.9634496398
 C          5.5482614199        0.4727836626        1.8202730898
 C          6.3131911804       -0.8566148571        1.8812706898
 C          7.0757850005       -1.2286131668        0.6089777298
 H          7.7070052702       -0.3921765766        0.3072245398
 H          7.7366178709       -2.0597065365        0.8633208598
 C          6.1818414307       -1.6513749072       -0.5651907002
 H          5.1845951208       -1.8982147776       -0.1938898201
 H          6.5859814210       -2.5570095471       -1.0231278501
 C          6.0515688002       -0.6044625673       -1.6714373402
 H          5.3686369004       -0.9920449376       -2.4317090702
 H          7.0240254102       -0.4452348869       -2.1427162602
 C          5.5113784497        0.7507223625       -1.1966079702
 H          6.2761231095        1.2837650728       -0.6320057003
 H          5.2492448594        1.3430016624       -2.0769492702
 H          5.6087293107       -1.6535467773        2.1299954699
 H          7.0320708604       -0.7808904168        2.7003829998
 H          5.2172836298        0.7259772225        2.8297220398
 H          6.2132792796        1.2604767329        1.4649691297
 O          3.1965580600        0.2240761317        1.7134899498
 C          1.9418944900        0.1377575212        1.1265489799
 O          1.0131098101       -0.0724979092        1.9285555599
 O          2.9153172597        0.7108468114       -2.3172959602
 C          0.4812736499        0.2090739705       -0.9071299701
 C         -0.4497473505        1.2573835901       -0.3497899301
 C          0.0269017190        2.5496347403       -0.1428443102
 C         -0.7975866914        3.5360023200        0.3607226198
 C         -2.1230255713        3.2618805395        0.6492151499
 C         -2.6143501908        1.9814980893        0.4315492399
 C         -1.7783355304        0.9875993496       -0.0603127601
 H         -2.1805675100        0.0012914495       -0.2209209800
 N         -3.9506778706        1.6687633888        0.7199686800
 S         -4.8228313003        0.6908251584       -0.3194793400
 O         -4.4020813304        0.8593132785       -1.6906221800
 O         -6.2080603804        1.0059127279       -0.0392390800
 C         -4.4978889896       -0.9720230715        0.2261919501
 C         -4.4120190192       -1.9781259315       -0.7155589599
 C         -4.2134708087       -3.2821238114       -0.2888943099
 C         -4.1051319185       -3.5555289413        1.0657246501
 C         -4.1950416989       -2.5336126413        1.9987592801
 C         -4.3979247894       -1.2286628514        1.5791472101
 H         -4.4699917598       -0.4117943514        2.2775101400
 H         -4.1070032488       -2.7493848012        3.0514397801
 H         -3.9486150081       -4.5703811212        1.3959673502
 H         -4.1435489084       -4.0780119314       -1.0135418898
 H         -4.4908510393       -1.7191377815       -1.7594991899
 H         -4.5051022909        2.4413091786        1.0590906499
 H         -2.7706252416        4.0321835093        1.0398665099
 H         -0.4088292718        4.5301860402        0.5230886498
 H          1.0595147789        2.7695662608       -0.3776232202
 H          0.6485729298        0.4397249405       -1.9707017301
 C         -0.0597418295       -1.2013806697       -0.7952448200
 C         -0.9601893393       -1.7586189101       -1.8554738100
 C          0.4516933109       -2.2466516895       -1.7392756200
 H          0.6240501413       -3.2433219695       -1.3620304500
 H          1.1669350907       -1.9320832993       -2.4853866200
 H         -1.7566287290       -2.4217267404       -1.5533291500
 H         -1.2135228696       -1.1165659502       -2.6859556200
 H         -0.2356626194       -1.4968904297        0.2332403100
