  62
        -98.94099136
 C         -1.8518954604       -0.8294959398        0.7534584402
 C         -2.1531156503        0.5584321402        0.8061138908
 C         -3.5615415203        0.9295270104        0.6396034014
 C         -4.4871448104       -0.0331656195        0.4793162813
 C         -5.9709496904        0.1746057707        0.3410377818
 C         -6.4277600308        0.4978911413       -1.0879407480
 C         -6.0681244608        1.8993150115       -1.5826806975
 H         -6.6310427211        2.0685104719       -2.5027933173
 H         -6.4053313105        2.6377869312       -0.8546659171
 C         -4.5745106809        2.1032472315       -1.8728402779
 H         -4.0837867110        1.1308843814       -1.9590179784
 H         -4.4561974011        2.6064154918       -2.8351853777
 C         -3.8331652505        2.9403323910       -0.8302109178
 H         -2.7794694806        2.9873711010       -1.1166539081
 H         -4.2287715104        3.9584310610       -0.8299660873
 C         -3.9111249801        2.3864640304        0.5986180120
 H         -3.1829859799        2.9202570601        1.2138903920
 H         -4.9063799800        2.5501707504        1.0115490324
 H         -6.0066573311       -0.2476057585       -1.7664848684
 H         -7.5149978208        0.3938379714       -1.1138614077
 H         -6.4450640304       -0.7592278994        0.6508795316
 H         -6.2933247902        0.9684052405        1.0155304522
 O         -4.1644442105       -1.3511183795        0.4464185807
 C         -2.8486536005       -1.7838671696        0.5482907001
 O         -2.7321098507       -3.0215937196        0.4433812796
 O         -1.2796109401        1.4460885700        0.9960312609
 C         -0.3911028004       -1.2023311200        0.9247956796
 C          0.3222514992       -1.3902952396       -0.3932257307
 C         -0.1666651511       -2.2391231191       -1.3798620808
 C          0.5336182985       -2.4134672287       -2.5596195411
 C          1.7433987585       -1.7731824088       -2.7651783912
 C          2.2456684089       -0.9312816792       -1.7807886710
 C          1.5227705692       -0.7312971096       -0.6135298507
 H          1.9069223595       -0.0553246899        0.1349299994
 N          3.4722104789       -0.2705739093       -1.9438512411
 S          4.5339824393       -0.2008501699       -0.6478489114
 O          5.8355771391       -0.0197616897       -1.2540317617
 O          4.3867027994       -1.3469889602        0.2176826282
 C          4.0917734396        1.2886189998        0.2197305993
 C          3.8315004800        1.2374266493        1.5747280593
 C          3.5096708403        2.4090273691        2.2411671999
 C          3.4568005002        3.6059536894        1.5439799304
 C          3.7251705798        3.6414358799        0.1838798503
 C          4.0471953795        2.4733527801       -0.4879109802
 H          4.2651540892        2.4614573205       -1.5427894103
 H          3.6825188798        4.5751833601       -0.3533613293
 H          3.2040352905        4.5159213792        2.0649304208
 H          3.2994277106        2.3825614087        3.2985133899
 H          3.8801209201        0.2842222191        2.0781569790
 H          3.9533120386       -0.4786069890       -2.8070116314
 H          2.2959645182       -1.9254069285       -3.6800934514
 H          0.1409240182       -3.0691174384       -3.3223902113
 H         -1.0945077911       -2.7637361591       -1.2108000108
 H          0.0682412398       -0.3352901303        1.4195328798
 C         -0.1602195902       -2.4251991704        1.7951729991
 C          1.2260643299       -2.7128986807        2.2870556186
 C          0.1716601202       -2.2480237510        3.2450127591
 H         -0.2276465197       -2.9562926612        3.9555049489
 H          0.2353892604       -1.2381794211        3.6233558994
 H          1.5466721098       -3.7425581507        2.3362273481
 H          2.0154829699       -2.0311683407        2.0060565486
 H         -0.7785025004       -3.2693604202        1.5191805589
