  62
        -98.93486560
 C         -1.7475272605       -0.9564381557        0.2769068420
 C         -2.0349121743        0.4013354637       -0.0222714771
 C         -3.3603222583        0.6964505205       -0.5891614906
 C         -4.2198414852       -0.3136620605       -0.8043892704
 C         -5.6021473349       -0.2655128357       -1.4062690606
 C         -6.5232279271        0.8840952246       -0.9774131986
 C         -6.3468014104        1.3472058585        0.4760369663
 H         -7.3229671615        1.3636536928        0.9644142520
 H         -5.7220141585        0.6377011435        1.0213050421
 C         -5.7420909175        2.7488321751        0.5865716365
 H         -5.9801772847        3.1569140449        1.5718680179
 H         -6.2154504576        3.3939109263       -0.1568981946
 C         -4.2247522164        2.8230452186        0.4205025669
 H         -3.7351143220        2.3690425667        1.2861766452
 H         -3.9396291191        3.8776949734        0.4078879831
 C         -3.6619957153        2.1461614199       -0.8400571835
 H         -4.3291854886        2.2766161899       -1.6886110066
 H         -2.7031482301        2.6161828723       -1.0743208989
 H         -6.3782666679        1.7348872923       -1.6415980496
 H         -7.5477288405        0.5394395898       -1.1282474190
 H         -5.4977733359       -0.2533521622       -2.4952098284
 H         -6.0607057770       -1.2207385627       -1.1390858326
 O         -3.9023226685       -1.6046076496       -0.5114591987
 C         -2.6764284878       -1.9652819201        0.0272014910
 O         -2.5683441651       -3.1923227351        0.2232326576
 O         -1.2105594189        1.3331530417        0.1750435174
 C         -0.3801672865       -1.2395641273        0.8715795444
 C          0.6136758027       -1.6985372188       -0.1687930452
 C          0.4064602221       -2.8495568797       -0.9213825986
 C          1.3548320240       -3.2613250457       -1.8395350981
 C          2.5318776882       -2.5525912102       -2.0069637419
 C          2.7489422246       -1.4022263730       -1.2583271557
 C          1.7824244678       -0.9761213930       -0.3582514188
 H          1.9479632208       -0.0719938670        0.2071322392
 N          3.9255161373       -0.6560238581       -1.4068781840
 S          4.6431966872        0.0584803081       -0.0738222065
 O          6.0255623804        0.2379853949       -0.4632033908
 O          4.4151391093       -0.7082462375        1.1283113455
 C          3.8671742534        1.6550267634        0.0487591225
 C          3.8540874997        2.4643100470       -1.0697913328
 C          3.2684278404        3.7166086807       -0.9820087585
 C          2.7112679461        4.1372706600        0.2161516354
 C          2.7367665805        3.3149873037        1.3315350487
 C          3.3207643807        2.0609968924        1.2496574462
 H          3.3567998653        1.3876784631        2.0921037820
 H          2.3002682627        3.6423545776        2.2615718905
 H          2.2525365974        5.1112002803        0.2821140014
 H          3.2451862089        4.3600429748       -1.8468499309
 H          4.2992890332        2.1038232791       -1.9820970233
 H          4.6069703459       -1.0525613875       -2.0372228119
 H          3.2774743217       -2.8864721199       -2.7126849395
 H          1.1825523965       -4.1538861725       -2.4221982565
 H         -0.5025147886       -3.4138215010       -0.7802271942
 H         -0.0279089935       -0.2705656248        1.2512350796
 C         -0.3986640701       -2.2247509301        2.0258235646
 C          0.8122602843       -2.3236271479        2.9034724772
 C         -0.4497377462       -1.7119917767        3.4320734234
 H         -1.0240230247       -2.2637902291        4.1611723131
 H         -0.4770285709       -0.6413990355        3.5740501354
 H          1.1028570140       -3.2970769481        3.2682599624
 H          1.6489829887       -1.6767651687        2.6819188688
 H         -0.9352812043       -3.1379185507        1.8040455538
