  62
        -98.94050316
 C         -1.1430731595       -1.1978428569        0.5181402780
 C         -1.6604424948       -0.7576920520       -0.7225823227
 C         -2.5050901331        0.4512855241       -0.6807427945
 C         -2.6393040043        1.1183422166        0.4779124290
 C         -3.4931384460        2.3267365764        0.7453007048
 C         -4.8654645621        1.9038669422        1.2969430761
 C         -5.9169195838        1.5906182730        0.2328462974
 H         -6.7874505447        1.1782073632        0.7482085640
 H         -6.2314393283        2.5207174367       -0.2453783195
 C         -5.4781603269        0.6059965389       -0.8547001167
 H         -4.9292960347       -0.2220568713       -0.4025731633
 H         -6.3788861858        0.1866107868       -1.3073015996
 C         -4.6292941044        1.2596573809       -1.9554523090
 H         -4.7056221079        2.3431376882       -1.8647077646
 H         -5.0458382570        1.0022279572       -2.9314070639
 C         -3.1491097614        0.8458573224       -1.9817140582
 H         -3.0269263244       -0.0289722884       -2.6278306209
 H         -2.5654555900        1.6522097969       -2.4371730911
 H         -4.7157080157        1.0295564761        1.9356595675
 H         -5.2529365092        2.7059239619        1.9284561677
 H         -2.9774051778        2.9120231841        1.5090818667
 H         -3.6048461300        2.9319244051       -0.1494509689
 O         -2.0195261605        0.7258952167        1.6244946054
 C         -1.2820989051       -0.4384985088        1.6807812017
 O         -0.7953609488       -0.6865861579        2.8041475198
 H          1.5384434487       -0.9405828112        1.6476107586
 C          1.8764530065       -1.3781903865        0.7164769384
 C          1.0280898011       -2.2436195147        0.0346175426
 C          1.4625599482       -2.7918175898       -1.1638774042
 C          2.7161413523       -2.4769712017       -1.6632676942
 C          3.5589875675       -1.6181252880       -0.9812319388
 C          3.1300292539       -1.0643837097        0.2187287768
 N          3.9744113552       -0.1651122719        0.9123841805
 S          4.1990483144        1.3138146654        0.1588466104
 O          4.9085049562        1.0990648628       -1.0757257302
 O          4.8488033290        2.1586304688        1.1342259939
 C          2.5543903764        1.9166139736       -0.1778625544
 C          1.9657098826        2.7888069352        0.7153443127
 C          0.6724742899        3.2229995162        0.4743375717
 C         -0.0114141867        2.7661786496       -0.6412785613
 C          0.5868631354        1.8755928768       -1.5190479216
 C          1.8837728911        1.4469532300       -1.2897528848
 H          2.3815312505        0.7643732604       -1.9589120860
 H          0.0468573501        1.5026794979       -2.3748336980
 H         -1.0179064786        3.1052380998       -0.8270116729
 H          0.2005638420        3.9113585290        1.1570410370
 H          2.5335701187        3.1211494940        1.5698174428
 H          3.6677033529        0.0002811880        1.8616417065
 H          4.5296483669       -1.3500833504       -1.3657216462
 H          3.0409071122       -2.9073151029       -2.5984365420
 H          0.8152462156       -3.4538742885       -1.7143842304
 C         -0.3375487311       -2.4840159963        0.6293609797
 H         -0.2014311089       -2.6561956633        1.7064104411
 C         -1.0713142479       -3.6680002864        0.0392579823
 C         -0.6478510023       -5.0545355670        0.4172470385
 C         -1.9434851019       -4.5011156752        0.9276884279
 H         -2.8661970502       -4.8911516910        0.5249744749
 H         -2.0061230634       -4.2249931690        1.9705389559
 H          0.1707562733       -5.1534714222        1.1142335801
 H         -0.6808387723       -5.8281499739       -0.3345172077
 H         -1.4147259032       -3.4982250626       -0.9731321788
 O         -1.4531641797       -1.3445659374       -1.8154329400
