  62
        -98.94282659
 C         -1.8668757896       -1.3944336094       -0.2221935307
 C         -2.1603883590       -0.2547391993       -1.0106046508
 C         -3.5459687888        0.2375512113       -0.9343956911
 C         -4.4376354892       -0.3976672283       -0.1538909312
 C         -5.8539290091        0.0447112423        0.0701509385
 C         -5.9555407689        0.9844291124        1.2800611885
 C         -4.9324744384        2.1205762519        1.2702746086
 H         -5.1184690483        2.7330833521        2.1552042385
 H         -3.9293325086        1.7005537815        1.3763654288
 C         -4.9787962178        3.0066405219        0.0175755086
 H         -5.9304746778        2.8709755423       -0.4975909616
 H         -4.9227562675        4.0528205019        0.3257220185
 C         -3.8330529478        2.7717247014       -0.9686721612
 H         -3.8407064473        3.5846987714       -1.6999439413
 H         -2.8763632678        2.8185003710       -0.4411702811
 C         -3.8873148582        1.4528759814       -1.7498463312
 H         -3.1325923280        1.5059510610       -2.5402416111
 H         -4.8677149082        1.3416032218       -2.2175392214
 H         -6.9637402887        1.4015527828        1.3091739683
 H         -5.8038670493        0.3967118823        2.1883057885
 H         -6.4656907995       -0.8395772775        0.2559458885
 H         -6.2186048187        0.5458168424       -0.8243160116
 O         -4.1264398898       -1.5024924884        0.5699145489
 C         -2.8415945500       -2.0161304289        0.5644595291
 O         -2.6931862205       -3.0236974690        1.2846104692
 O         -1.3304323986        0.3359329303       -1.7502916907
 C         -0.4752396299       -2.0075001099       -0.1442440205
 C          0.3636857903       -1.1964349202        0.8146644996
 C          0.5559350599       -1.6535912503        2.1150899497
 C          1.2810547601       -0.9082251305        3.0259466298
 C          1.8432639406        0.2989538092        2.6515379498
 C          1.6534455610        0.7683789593        1.3567719298
 C          0.9136739709        0.0242439595        0.4472745597
 H          0.7459658412        0.4232803896       -0.5405007104
 N          2.2056904516        1.9995573490        0.9593856598
 S          3.1293255518        2.0685335486       -0.4358639001
 O          3.8612312523        3.3117697483       -0.3201342500
 O          2.3021220020        1.9212260389       -1.6034175002
 C          4.2493940313        0.6892209781       -0.2836019598
 C          5.4381612312        0.8778235077        0.3943432004
 C          6.2837127208       -0.2036060926        0.5798138506
 C          5.9208160603       -1.4523381925        0.0980465406
 C          4.7227508204       -1.6254014621       -0.5774686196
 C          3.8760797908       -0.5457428817       -0.7744867798
 H          2.9398803509       -0.6423925814       -1.2990710000
 H          4.4395187600       -2.5967043220       -0.9503221796
 H          6.5757832200       -2.2961518628        0.2473537107
 H          7.2182998707       -0.0710971330        1.1005982007
 H          5.6818995716        1.8671111076        0.7466128604
 H          2.6798095017        2.4915676389        1.7036343499
 H          2.4138990707        0.8824067090        3.3583105599
 H          1.4163407897       -1.2728507105        4.0327581598
 H          0.1089251495       -2.5919052001        2.4103804396
 H         -0.6189897203       -3.0017271199        0.3001014495
 C          0.1803498603       -2.1847783903       -1.4981487604
 C          1.2630246299       -3.2094443107       -1.6505872501
 C         -0.0832434401       -3.4438899802       -2.2659773204
 H         -0.1808780999       -3.3812309302       -3.3394652404
 H         -0.7328365705       -4.1782390199       -1.8117138804
 H          2.0901593501       -2.9888927911       -2.3082346000
 H          1.5287735995       -3.7895790808       -0.7797442901
 H          0.2647210308       -1.2685777003       -2.0678486204
