  62
        -98.93954361
 C         -2.6319580590       -1.2632708612        0.0310447278
 C         -2.7370177090       -0.2347009994       -0.9357980376
 C         -4.0775927784        0.3432700171       -1.1090984113
 C         -5.1018230630       -0.1330871900       -0.3780404316
 C         -6.5029696457        0.4034685308       -0.4133075200
 C         -6.7025471909        1.5035467190        0.6387507757
 C         -5.6151972395        2.5781546140        0.6243298245
 H         -5.8765652461        3.3151181305        1.3869402855
 H         -4.6649079332        2.1300686229        0.9243552120
 C         -5.4366368506        3.2832555501       -0.7274421217
 H         -6.3193504552        3.1237122823       -1.3477889769
 H         -5.3527756364        4.3579656379       -0.5526996263
 C         -4.1881618419        2.8599091628       -1.5037630923
 H         -3.3108748879        2.9292059662       -0.8550225010
 H         -4.0433990821        3.5665760096       -2.3253263415
 C         -4.2264070544        1.4522966085       -2.1120339782
 H         -5.1413902939        1.3271378235       -2.6944944789
 H         -3.3713374601        1.3601427940       -2.7880276121
 H         -7.6765702891        1.9673231699        0.4727309286
 H         -6.7112585365        1.0394866179        1.6277762850
 H         -6.7118902435        0.7944154292       -1.4071071760
 H         -7.1910501062       -0.4169443523       -0.2027220411
 O         -4.9648285161       -1.1383942251        0.5246422924
 C         -3.7287372567       -1.7161090883        0.7633867326
 O         -3.7357371144       -2.6075982331        1.6368672300
 O         -1.7653139079        0.1795728115       -1.6198963879
 C         -1.2831579536       -1.9025061389        0.3090108258
 C         -0.3028788588       -0.8419323701        0.7500615085
 C         -0.6616867139       -0.0009006159        1.8005853186
 C          0.1970309540        0.9870322272        2.2411635777
 C          1.4335991563        1.1609666016        1.6442580926
 C          1.8064081145        0.3222526214        0.6037680403
 C          0.9443916539       -0.6794312530        0.1701225428
 H          1.2487492115       -1.3234148407       -0.6401595253
 N          3.0528575602        0.5014014201       -0.0219782223
 S          4.3929082556        0.7945733916        0.9626914505
 O          4.4217022348       -0.1530467015        2.0549165272
 O          4.3943022698        2.1860271501        1.3382939467
 C          5.7241577449        0.4743587058       -0.1775267390
 C          6.3012589201       -0.7811187174       -0.2078601842
 C          7.3188162911       -1.0289138847       -1.1157474710
 C          7.7375560917       -0.0236175774       -1.9744496029
 C          7.1485770289        1.2314462953       -1.9318205161
 C          6.1311051150        1.4862707274       -1.0261715798
 H          5.6502281728        2.4475750837       -0.9510272779
 H          7.4789949144        2.0108581190       -2.5993542612
 H          8.5298783350       -0.2190278279       -2.6796992976
 H          7.7807254820       -2.0024955810       -1.1496376234
 H          5.9513439611       -1.5293387414        0.4852856249
 H          3.2483012144       -0.2243554883       -0.6980454980
 H          2.1129551763        1.9292302990        1.9764960376
 H         -0.0975022621        1.6318041343        3.0561442435
 H         -1.6291949328       -0.1335925001        2.2670447649
 H         -1.4402602747       -2.5897138460        1.1532858779
 C         -0.8263723826       -2.7036325864       -0.8919736155
 C          0.0982712521       -3.8693071501       -0.7127353996
 C         -1.3399788653       -4.1001774697       -1.0646912592
 H         -1.5803147944       -4.4419144027       -2.0602197030
 H         -2.0019657556       -4.4818979156       -0.3009200964
 H          0.8444236669       -4.0587181599       -1.4698016609
 H          0.4181705706       -4.1035223939        0.2915345485
 H         -0.7225184977       -2.0955814655       -1.7832772896
