  62
        -98.94436399
 C         -1.2817250426       -1.5486818321       -0.0813754510
 C         -1.3162533667       -0.1378484058       -0.2072365958
 C         -2.4802404301        0.5263581970        0.3972379878
 C         -3.4159730258       -0.1961804427        1.0371431404
 C         -4.6434288585        0.3450045944        1.7186707383
 C         -5.8263487953        0.5901667268        0.7716803932
 C         -5.6763672443        1.7922971462       -0.1617808950
 H         -6.6563447098        1.9745896834       -0.6074996536
 H         -5.4160203065        2.6747066216        0.4233592699
 C         -4.6513130959        1.5971095278       -1.2878568909
 H         -5.0804142156        1.9372800470       -2.2331820268
 H         -4.4334589179        0.5325803559       -1.4013738689
 C         -3.3373550188        2.3524519662       -1.0867392948
 H         -3.5275710898        3.4276432739       -1.1073047410
 H         -2.6723783189        2.1102185180       -1.9193991202
 C         -2.6061257587        2.0088940937        0.2171896665
 H         -1.5956899407        2.4198919728        0.1631106524
 H         -3.1237595642        2.4524337172        1.0670604022
 H         -6.7121930892        0.7473934012        1.3915698970
 H         -5.9924591582       -0.3126927002        0.1793075216
 H         -4.3958598949        1.2697919772        2.2403088483
 H         -4.9432514436       -0.4016127697        2.4572144139
 O         -3.3372189612       -1.5485298615        1.1546900673
 C         -2.2878656028       -2.2512220625        0.5899012173
 O         -2.3611316139       -3.4870479450        0.7494417732
 O         -0.4407621706        0.5542905733       -0.7887717455
 C         -0.1639361795       -2.4042291852       -0.6583052142
 C          1.0632467704       -2.3473872617        0.2198976038
 C          1.4304805058       -3.4514887959        0.9814102911
 C          2.5550357961       -3.4093632881        1.7857206955
 C          3.3396664616       -2.2717416981        1.8347861319
 C          2.9746383000       -1.1580442507        1.0854644523
 C          1.8384634373       -1.1980250580        0.2910419578
 H          1.5537404422       -0.3242702937       -0.2719346662
 N          3.7313784037        0.0174920046        1.1473074857
 S          3.8451968065        1.0672991061       -0.1477090627
 O          3.8285580279        0.3701696766       -1.4122481599
 O          5.0495587757        1.8261728190        0.1298936878
 C          2.4581617986        2.1697672411        0.0031072348
 C          1.8692844259        2.6659260926       -1.1410853068
 C          0.8519170976        3.5979885723       -1.0216619141
 C          0.4432719492        4.0150132066        0.2349865203
 C          1.0404892168        3.5007537731        1.3758527030
 C          2.0615355482        2.5720690364        1.2621974489
 H          2.5466873115        2.1517155472        2.1277450506
 H          0.7106707687        3.8186685489        2.3522284947
 H         -0.3484187481        4.7427567155        0.3259879688
 H          0.3760703345        3.9876328204       -1.9073912971
 H          2.2078360266        2.3051964789       -2.0992877189
 H          4.5954920190       -0.0455902965        1.6645301271
 H          4.2244573699       -2.2401093712        2.4523789262
 H          2.8291679608       -4.2734448439        2.3719510014
 H          0.8185009220       -4.3414296586        0.9464702473
 H         -0.5426092704       -3.4352674198       -0.6354409995
 C          0.1717122464       -2.0537459752       -2.0946075971
 C          0.8317302522       -3.0862411098       -2.9558655213
 C         -0.5951419410       -2.7010625701       -3.2062112407
 H         -0.8274411651       -2.1148177983       -4.0826306464
 H         -1.3676407478       -3.4067079516       -2.9355329977
 H          1.5859880874       -2.7631233388       -3.6570933835
 H          1.0251446478       -4.0541888579       -2.5180934449
 H          0.4702520209       -1.0230250568       -2.2325545302
