  62
        -98.92876852
 C         -2.1552960177       -1.0695818107        0.6440695375
 C         -2.4347906293       -0.4370787575       -0.5906110037
 C         -3.2053759835        0.8250077146       -0.5317140306
 C         -3.5504444759        1.3254897774        0.6679033644
 C         -4.3602094371        2.5582858172        0.9703092262
 C         -5.8637418913        2.3564992019        0.7206762788
 C         -6.2082314575        1.6279178320       -0.5755910798
 H         -7.2872106177        1.4527113457       -0.5802758243
 H         -5.7209086109        0.6513617994       -0.5776341297
 C         -5.8508514763        2.3765187164       -1.8572911239
 H         -6.3686911365        3.3381681826       -1.8669315742
 H         -6.2310010986        1.7859326907       -2.6945818051
 C         -4.3594688352        2.6257979892       -2.0920918675
 H         -3.9973721727        3.4497797014       -1.4829125541
 H         -4.2415371737        2.9369314326       -3.1342236596
 C         -3.4703428470        1.4008855882       -1.9019956223
 H         -2.4803957842        1.6198184112       -2.3210151495
 H         -3.8628439064        0.5754246247       -2.5065067140
 H         -6.3485235392        3.3340884919        0.7324737042
 H         -6.2667802644        1.7696655934        1.5497154190
 H         -4.2096272491        2.7793596655        2.0294926836
 H         -3.9810033089        3.4019770461        0.4010592473
 O         -3.2104641043        0.7067086155        1.8363577520
 C         -2.5052738039       -0.4775446832        1.8580637466
 O         -2.2482580776       -0.9014753390        3.0058657328
 H          0.5544748513       -1.1594368951        1.9868005389
 C          0.8792406244       -1.4069514667        0.9825951794
 C          0.0048709563       -2.0977989996        0.1461735682
 C          0.4284664404       -2.3706409176       -1.1480980806
 C          1.6856376259       -1.9747354190       -1.5752286618
 C          2.5458486520       -1.2905691984       -0.7374823123
 C          2.1292917069       -0.9953601335        0.5537668684
 N          2.9866696763       -0.2729772164        1.4119585861
 S          3.3895397374        1.2766926509        0.8897930625
 O          3.7177755890        2.0129180371        2.0917896387
 O          2.3515347315        1.8388602294        0.0549863304
 C          4.8745665663        1.0252602232       -0.0594689915
 C          5.9618034499        0.4551577853        0.5739125957
 C          7.1269365161        0.2544677877       -0.1487847647
 C          7.1853759818        0.6273152213       -1.4836155571
 C          6.0860081782        1.2011099377       -2.1037947642
 C          4.9166620560        1.4035753429       -1.3869446158
 H          4.0339397312        1.8391806226       -1.8274648811
 H          6.1330298164        1.4900487956       -3.1414707139
 H          8.0933351481        0.4702776739       -2.0441857308
 H          7.9840347036       -0.1909290027        0.3299558334
 H          5.8740882956        0.1846118317        1.6128541842
 H          2.6401268592       -0.2244804514        2.3604770277
 H          3.5203573523       -0.9755079210       -1.0732419504
 H          1.9933650266       -2.1967108410       -2.5857563684
 H         -0.2258669413       -2.8586175736       -1.8469412605
 C         -1.3607435301       -2.3698150369        0.7281547679
 H         -1.2079347681       -2.5222970298        1.8082492592
 C         -2.1812197954       -3.5696572053        0.2784711815
 C         -2.5491705194       -3.9182278704       -1.1308890030
 C         -1.5963949247       -4.7891449794       -0.3688566836
 H         -1.9458300956       -5.7556129371       -0.0370381882
 H         -0.5512800602       -4.7681118239       -0.6330682236
 H         -2.1918724437       -3.2853769884       -1.9255326244
 H         -3.5510030126       -4.2876232019       -1.3004210945
 H         -2.9644225679       -3.7541439939        1.0110476904
 O         -2.0748456311       -0.8869756051       -1.7063447289
