  62
        -98.94463763
 C         -1.6875817401       -1.4031418091        0.2008076009
 C         -1.6346320198       -0.3309051497       -0.7231464198
 C         -2.9349469596        0.1986837104       -1.1627674602
 C         -4.0683524098       -0.3516914791       -0.6917105799
 C         -5.4539871096        0.1272843711       -1.0120241802
 C         -5.9315413794        1.1649565118        0.0134231291
 C         -4.9221251592        2.2825175817        0.2774427385
 H         -5.3786221590        2.9711620523        0.9917994380
 H         -4.0372640193        1.8606059218        0.7602503588
 C         -4.4917237589        3.0582303809       -0.9753779920
 H         -5.2102505689        2.8923420405       -1.7789865219
 H         -4.5018056587        4.1260097110       -0.7466051227
 C         -3.0854940990        2.7251075202       -1.4780597217
 H         -2.8043742788        3.4753592597       -2.2223573122
 H         -2.3699778090        2.8030501305       -0.6545188917
 C         -2.9193565293        1.3473292198       -2.1315326009
 H         -3.6788363293        1.2125457495       -2.9044513008
 H         -1.9346811193        1.3257991192       -2.6076943508
 H         -6.8689716593        1.5964033218       -0.3420726612
 H         -6.1291966596        0.6530607324        0.9580304994
 H         -5.4626169695        0.5577172805       -2.0113509105
 H         -6.1285269298       -0.7301992788       -0.9888189297
 O         -4.0786039801       -1.3901067885        0.1822779308
 C         -2.8962406202       -1.9249315485        0.6651179612
 O         -3.0499015305       -2.8503065680        1.4878099717
 O         -0.5656174496        0.1593470198       -1.1701600400
 C         -0.4110282102       -2.0053099291        0.7666654813
 C          0.2547130700       -0.9705515187        1.6420277907
 C         -0.3951064400       -0.5589773278        2.8038054004
 C          0.1665743202        0.3997968226        3.6237791399
 C          1.3778593204        0.9840042921        3.2917727696
 C          2.0297438903        0.5873981412        2.1323772599
 C          1.4750977801       -0.3980199692        1.3258335504
 H          2.0018945601       -0.7067257399        0.4410168007
 N          3.2656980205        1.1483354407        1.7577293896
 S          3.3509296507        1.8795646997        0.2410586091
 O          4.5260256409        2.7238763895        0.3224028587
 O          2.1156266809        2.5534616198       -0.0828544413
 C          3.6834562405        0.5478803489       -0.8903690800
 C          4.9020043103       -0.0941715213       -0.7852554296
 C          5.1859313601       -1.1364708319       -1.6524882889
 C          4.2527623600       -1.5125111823       -2.6074034287
 C          3.0368626902       -0.8529948020       -2.7019460592
 C          2.7430228504        0.1894941386       -1.8359021399
 H          1.7926789705        0.7005383788       -1.8561772902
 H          2.3077774802       -1.1482950723       -3.4401778291
 H          4.4718682099       -2.3254629527       -3.2819547882
 H          6.1294914800       -1.6531313521       -1.5815362586
 H          5.5994868703        0.2362763790       -0.0337784597
 H          3.6555378106        1.7717056210        2.4517797792
 H          1.8118821105        1.7438367423        3.9247040591
 H         -0.3453835398        0.7045133832        4.5244275497
 H         -1.3488339701       -1.0050646874        3.0525740007
 H         -0.7308396905       -2.8360694086        1.4113501018
 C          0.4801381697       -2.5475442400       -0.3298843183
 C          1.5699844894       -3.5184711700        0.0085687024
 C          0.3558415293       -3.9834784802       -0.7366995374
 H          0.4544342093       -4.2320663608       -1.7825010672
 H         -0.3669528908       -4.5905644297       -0.2109629671
 H          2.5056383595       -3.4456338506       -0.5249750876
 H          1.6724746893       -3.8121004994        1.0422331726
 H          0.6717546799       -1.8254086805       -1.1134677487
