  62
        -98.94446580
 C         -2.0180938822       -1.3680201994        0.0560318582
 C         -2.3203785224       -0.4131474867       -0.9450033682
 C         -3.6847064527        0.1316122235       -0.9196260368
 C         -4.5612932988       -0.2800210225        0.0131615611
 C         -5.9875604179        0.1761814902        0.1571472241
 C         -6.1457715279        1.4879450917        0.9382127859
 C         -5.7032426157        2.7472140935        0.1918545427
 H         -6.1855528651        2.7776004484       -0.7857349808
 H         -6.0697211539        3.6029336681        0.7623929753
 C         -4.1834962782        2.8830999784        0.0228488449
 H         -3.8786312623        3.9016348393        0.2741761756
 H         -3.6766491483        2.2169085005        0.7252298280
 C         -3.6741052220        2.5939797577       -1.3891787256
 H         -4.0721566011        3.3390422501       -2.0817957184
 H         -2.5850175500        2.6875677788       -1.3847290323
 C         -4.0300121973        1.1976248887       -1.9159143941
 H         -5.0884687419        1.1511843575       -2.1705811138
 H         -3.4439966095        1.0126869862       -2.8195176698
 H         -5.5901011979        1.4060896825        1.8753219726
 H         -7.2040702511        1.5931245430        1.1878313653
 H         -6.4416813525        0.2810279368       -0.8285675620
 H         -6.5125487494       -0.6128817313        0.6998523931
 O         -4.2382364697       -1.2050023468        0.9543095374
 C         -2.9702301779       -1.7554943429        1.0062795337
 O         -2.8128915880       -2.5802408369        1.9285094816
 H          0.3039138237        0.3277782579       -0.6831463164
 C          0.7432603627        0.0415702554        0.2609211620
 C          0.3434462579       -1.1424590787        0.8644101393
 C          0.9105074138       -1.4914831958        2.0842144326
 C          1.8499187271       -0.6720428820        2.6863433347
 C          2.2440383261        0.5085344588        2.0832362767
 C          1.6803560002        0.8662625138        0.8650704021
 N          2.0887718916        2.0583388387        0.2356261019
 S          3.7405693501        2.2375189672        0.0150128316
 O          4.3383511789        2.7134771344        1.2377838147
 O          3.8887932480        3.0989697739       -1.1367136469
 C          4.3239834200        0.5901372797       -0.3440800342
 C          3.8860607737       -0.0118536455       -1.5071335764
 C          4.2737712855       -1.3142701607       -1.7742299783
 C          5.0841447844       -1.9913347249       -0.8758031902
 C          5.5181557631       -1.3717244414        0.2855078470
 C          5.1337411308       -0.0685657839        0.5581486019
 H          5.4462179710        0.4497884014        1.4498051300
 H          6.1497807561       -1.9002794771        0.9810838628
 H          5.3786393851       -3.0078595159       -1.0837618415
 H          3.9387231297       -1.7961446561       -2.6787646938
 H          3.2581256079        0.5429110059       -2.1861036327
 H          1.5930192149        2.2393303074       -0.6256390300
 H          2.9741132076        1.1604046642        2.5353124653
 H          2.2799250858       -0.9555144934        3.6347569563
 H          0.6002049464       -2.4070976486        2.5662324769
 C         -0.6622654311       -2.0451512004        0.1904930800
 H         -0.8296658458       -2.9075748270        0.8489493337
 C         -0.1179290738       -2.5512678262       -1.1325563903
 C          0.9369133238       -3.6144124134       -1.1220711908
 C         -0.4524511970       -3.9407013414       -1.5801640068
 H         -0.6249550607       -4.1151544284       -2.6316568304
 H         -1.0779545183       -4.5376670204       -0.9321632009
 H          1.7230629876       -3.5660336964       -1.8591654002
 H          1.2560276708       -3.9923344740       -0.1627990837
 H         -0.0569732387       -1.7856666284       -1.8941192377
 O         -1.5144125865       -0.0168780469       -1.8301416447
