  62
        -98.93941959
 C          2.5275876051        1.2240064927       -0.2398361377
 C          2.1678484273        0.0433657841       -0.9352648497
 C          3.2009705391       -1.0031907385       -0.9968071605
 C          4.3968352278       -0.7893661267       -0.4194487478
 C          5.5086364120       -1.7947636345       -0.3472200903
 C          5.4095395713       -2.6371609257        0.9325271784
 C          4.0173564231       -3.2158073525        1.1865007469
 H          4.0751288731       -3.8139399162        2.0984546499
 H          3.3190500931       -2.3984661936        1.3826291816
 C          3.4711327443       -4.0811682248        0.0423386625
 H          4.2877428861       -4.3906191450       -0.6109616823
 H          3.0325671125       -4.9869628600        0.4660969419
 C          2.3809324521       -3.4109039162       -0.7962343178
 H          1.9209588177       -4.1737379049       -1.4305132698
 H          1.5968275615       -3.0190607737       -0.1421618818
 C          2.8497515889       -2.2756179385       -1.7149870180
 H          3.6872587980       -2.6178670352       -2.3265926997
 H          2.0170225958       -2.0243047169       -2.3789782201
 H          6.1359417344       -3.4491482654        0.8682564500
 H          5.6774119134       -2.0065537786        1.7832360296
 H          5.4664922193       -2.4385333539       -1.2234382877
 H          6.4584760263       -1.2577430249       -0.3456554702
 O          4.7123259016        0.3656685436        0.2198666520
 C          3.7861291240        1.3866982270        0.3430526173
 O          4.1981025472        2.3765777841        0.9810101598
 O          1.0497684024       -0.1382749462       -1.4851400452
 C          1.5332993948        2.3594082032       -0.0485523317
 C          0.4727764161        1.8898369840        0.9185197487
 C          0.8027181849        1.8100133105        2.2700747706
 C         -0.1131473431        1.3471709301        3.1940745622
 C         -1.3731752770        0.9448929687        2.7863008365
 C         -1.7126325022        1.0194371729        1.4408489379
 C         -0.7939055753        1.4978667370        0.5148737177
 H         -1.0733503753        1.5283052157       -0.5243751224
 N         -3.0025210312        0.6476124205        1.0150536567
 S         -3.1522329285       -0.3098226983       -0.3725460383
 O         -2.3358489863       -1.4960082916       -0.2459025603
 O         -2.9503992664        0.5118987152       -1.5371234141
 C         -4.8785359117       -0.7460544870       -0.2486583129
 C         -5.2356603448       -1.9860643454        0.2456215168
 C         -6.5806990037       -2.3006460141        0.3615688869
 C         -7.5408401850       -1.3732541760       -0.0136338693
 C         -7.1673230379       -0.1325094077       -0.5087904404
 C         -5.8243393794        0.1872277518       -0.6285840429
 H         -5.4860191337        1.1337681622       -1.0163580153
 H         -7.9167225662        0.5848328811       -0.8020655201
 H         -8.5867882344       -1.6200782077        0.0776217158
 H         -6.8734767666       -3.2656809698        0.7428449616
 H         -4.4538056506       -2.6774625011        0.5165911611
 H         -3.5363252127        0.2294251823        1.7668848641
 H         -2.0891926956        0.5760927119        3.5055348779
 H          0.1560228617        1.2918527637        4.2382129036
 H          1.7950672053        2.1089375353        2.5798786865
 H          2.0956339319        3.1689422258        0.4377798114
 C          0.9868926161        2.8738191081       -1.3621135333
 C          0.3429252414        4.2259180557       -1.4053718218
 C          1.6811084385        4.0120301340       -2.0450405974
 H          1.7440173714        4.0035441577       -3.1228586329
 H          2.5521435833        4.4281154827       -1.5596459995
 H         -0.5173241960        4.3644421461       -2.0423151639
 H          0.3058358516        4.7889055832       -0.4848569836
 H          0.5740900331        2.0954551137       -1.9921175869
