  62
        -98.93935129
 C         -1.1265066509       -1.4670574699       -0.5686934331
 C         -2.4393577262       -1.6929490335       -0.0877397028
 C         -3.4184169562       -0.6134561688       -0.3014479305
 C         -3.0197351847        0.5116586630       -0.9199901447
 C         -3.8220941575        1.7610417124       -1.1581977534
 C         -3.6165166528        2.7607369584       -0.0070331000
 C         -4.5734330518        2.5940941200        1.1724146608
 H         -5.5771347354        2.8986147324        0.8683924764
 H         -4.2466923602        3.2814386385        1.9560939493
 C         -4.6468781042        1.1817501336        1.7578951792
 H         -5.0418923279        1.2589502928        2.7728017838
 H         -3.6424048316        0.7609533088        1.8328992571
 C         -5.5464550926        0.2387153284        0.9455610968
 H         -6.1319159340        0.8245877625        0.2372668711
 H         -6.2631172526       -0.2436724850        1.6136798467
 C         -4.8099397191       -0.8852336344        0.2029177348
 H         -5.4256088265       -1.2193119783       -0.6391960989
 H         -4.6992761021       -1.7473906272        0.8681077161
 H         -3.7371034300        3.7733807170       -0.3969586988
 H         -2.5859942701        2.6582311941        0.3403796893
 H         -4.8734882104        1.5259446491       -1.2941593124
 H         -3.4391514964        2.2048013516       -2.0791942003
 O         -1.7515839845        0.6827569160       -1.3821375914
 C         -0.7770727978       -0.2893312394       -1.2298760442
 O          0.3214122771        0.0173736208       -1.7279701778
 O         -2.7797551389       -2.7530882130        0.5040382280
 C         -0.0816736541       -2.5389038278       -0.3016643900
 C          0.8149611072       -2.0405347318        0.8052285489
 C          0.4798376622       -2.3162080223        2.1283997808
 C          1.2471950647       -1.8261001105        3.1681897944
 C          2.3550349530       -1.0386988492        2.9096368160
 C          2.6929229366       -0.7502012811        1.5915329331
 C          1.9317211448       -1.2581358183        0.5476034838
 H          2.2080975518       -1.0155381272       -0.4645636561
 N          3.8082296957        0.0491765303        1.3101154647
 S          3.9202389068        0.9939064001       -0.0566122461
 O          4.1624039646        0.1726556496       -1.2160219985
 O          4.9794420977        1.9313004197        0.2657265459
 C          2.4013203658        1.9143905655       -0.2325376599
 C          2.0854244473        2.3784984594       -1.4921616459
 C          0.9612396446        3.1696079265       -1.6574803531
 C          0.1705942472        3.4801237974       -0.5637427385
 C          0.4984004869        3.0038500593        0.6952587708
 C          1.6273779903        2.2189327468        0.8680879507
 H          1.8913409650        1.8388251957        1.8419395469
 H         -0.1224298356        3.2386568064        1.5461548582
 H         -0.7093044864        4.0904007690       -0.6957460435
 H          0.6992453443        3.5287608491       -2.6398853894
 H          2.7143045873        2.0960167554       -2.3210459488
 H          4.2516976313        0.4809140315        2.1069744168
 H          2.9551804064       -0.6496404058        3.7180690517
 H          0.9785709847       -2.0526517660        4.1887872268
 H         -0.3990830931       -2.9115968231        2.3307101403
 H         -0.6439881270       -3.4018359246        0.0801985448
 C          0.6728685298       -2.9684262194       -1.5411254920
 C          1.4287107207       -4.2621649127       -1.5153886419
 C          0.1763771354       -4.1415347090       -2.3295931591
 H          0.2600564245       -4.1109394822       -3.4056545271
 H         -0.7125300670       -4.6428642099       -1.9750232163
 H          2.3764644738       -4.3138380385       -2.0292641769
 H          1.3884081053       -4.8453289711       -0.6076048572
 H          1.1028617486       -2.1463545765       -2.0989364292
