  62
        -98.94469101
 C         -2.0711402396       -0.3632695595       -0.1708081587
 C         -3.0600274277       -0.8774824214        0.7048312706
 C         -4.2493450500       -0.0392327778        0.9005755829
 C         -4.3170317403        1.1574232908        0.2891138342
 C         -5.4869079343        2.0941966300        0.3662238260
 C         -6.4840889690        1.8334872329       -0.7714723856
 C         -6.8661130002        0.3620915289       -0.9330275919
 H         -5.9861576700       -0.2014927643       -1.2514037694
 H         -7.5960325491        0.3029997886       -1.7433030570
 C         -7.4514579955       -0.2842776968        0.3303321999
 H         -8.3297891803       -0.8691162889        0.0491888513
 H         -7.7862543235        0.4901368996        1.0214220864
 C         -6.4978373365       -1.2342585345        1.0573538483
 H         -6.0868138059       -1.9553155756        0.3463128768
 H         -7.0757172139       -1.7961483688        1.7959347359
 C         -5.3311308847       -0.5695947766        1.7989558416
 H         -4.8554646640       -1.3323816816        2.4222455272
 H         -5.7112541235        0.2185991742        2.4520230412
 H         -6.0378403217        2.1762840505       -1.7079288109
 H         -7.3816167145        2.4264520939       -0.5861884016
 H         -5.1143416856        3.1167302679        0.2842010086
 H         -5.9789990939        1.9739457952        1.3294323852
 O         -3.3341659582        1.6333619552       -0.5158412449
 C         -2.1927239699        0.8875198725       -0.7762882147
 O         -1.3904372611        1.4441524239       -1.5497988168
 O         -2.9520761244       -1.9863552781        1.2930197857
 C         -0.8232090201       -1.1984270491       -0.4082961075
 C          0.3452747697       -0.4998549610        0.2409230682
 C          0.5138369995       -0.6072335419        1.6190534417
 C          1.5402868343        0.0598792452        2.2603803808
 C          2.4194798365        0.8516329789        1.5420753742
 C          2.2597980252        0.9644513255        0.1674961280
 C          1.2373891646        0.2800968233       -0.4780413274
 H          1.1172920719        0.3911237271       -1.5438067609
 N          3.1450102026        1.7689399085       -0.5672525366
 S          4.7798075554        1.6594286036       -0.2408945342
 O          5.0983491948        2.4399341317        0.9291314832
 O          5.4395702347        2.0590416919       -1.4640992339
 C          5.0729382829       -0.0694650425        0.0900952390
 C          4.8019515393       -0.9778753398       -0.9141018056
 C          4.9934865254       -2.3272087619       -0.6667807772
 C          5.4486788933       -2.7435925687        0.5751409751
 C          5.7202771375       -1.8191130333        1.5713787121
 C          5.5295977759       -0.4678669342        1.3296555336
 H          5.7274016318        0.2842257070        2.0759323945
 H          6.0764033873       -2.1454286359        2.5352187710
 H          5.5933387828       -3.7952961711        0.7658409105
 H          4.7846604261       -3.0481850549       -1.4407335675
 H          4.4550673338       -0.6207437908       -1.8703637914
 H          2.9556381009        1.7930494782       -1.5578293677
 H          3.2138478920        1.3958915521        2.0265409979
 H          1.6561304325       -0.0316133784        3.3295840351
 H         -0.1825226191       -1.2124858497        2.1824211374
 H         -0.9994033698       -2.1384109165        0.1318765988
 C         -0.6191815879       -1.5111184187       -1.8754425142
 C          0.3222446863       -2.6095246652       -2.2671162645
 C         -1.1557738822       -2.7954592711       -2.4296392105
 H         -1.5714262008       -2.7916720342       -3.4262798333
 H         -1.6665498253       -3.4592401030       -1.7475763245
 H          0.9235880026       -2.4826801121       -3.1543183104
 H          0.8147854637       -3.1471990479       -1.4714122151
 H         -0.6776034972       -0.6376080906       -2.5135162285
