  62
        -98.93045938
 C          0.6372988684        2.0174637783       -0.3066393658
 C          1.0055525415        0.6792129076       -0.5949063647
 C          2.3367371565        0.2319893666       -0.1268732207
 C          3.1056694052        1.0679356327        0.5888361850
 C          4.4631211736        0.8310780650        1.2018632112
 C          5.4971252628        0.0853466222        0.3446171014
 C          5.7805006224       -1.3369085995        0.8317690592
 H          6.7739849046       -1.6323893658        0.4870435460
 H          5.8032951378       -1.3311523238        1.9236538067
 C          4.7915856780       -2.3987715075        0.3539806574
 H          4.9458720103       -2.5823694998       -0.7113872060
 H          5.0235593461       -3.3268565380        0.8817741523
 C          3.3149623075       -2.0644440786        0.5756320588
 H          3.1660969993       -1.6058326696        1.5532981943
 H          2.7568752131       -3.0035967071        0.5823443222
 C          2.7166673746       -1.1697234660       -0.5200068712
 H          3.3952152474       -1.1252299176       -1.3766834312
 H          1.7875308153       -1.6148909518       -0.8872574588
 H          6.4314148230        0.6473943292        0.3907070270
 H          5.1784300349        0.0746350577       -0.6962842011
 H          4.3220553685        0.3081127710        2.1516985780
 H          4.8370458723        1.8273107388        1.4501058521
 O          2.6923482449        2.3294262911        0.8985108064
 C          1.4834321513        2.8282225456        0.4628844001
 O          1.2747398626        4.0064326281        0.8225421876
 O          0.2887096015       -0.1461817319       -1.2179710467
 C         -0.6580277700        2.7162058083       -0.7025879774
 C         -1.8619998033        2.2529396926        0.0867971853
 C         -2.7391507624        3.1875103583        0.6295042792
 C         -3.8466308052        2.7799631425        1.3504276736
 C         -4.0919105053        1.4345536194        1.5630197840
 C         -3.2225007806        0.4948496793        1.0238067029
 C         -2.1307181197        0.9067488587        0.2736084622
 H         -1.4717382718        0.1664829831       -0.1442021727
 N         -3.4340167196       -0.8802208530        1.2020338535
 S         -2.1219885497       -1.9024172593        1.4060268755
 O         -2.6691418032       -3.0495431363        2.1064807686
 O         -1.0268811993       -1.2382124844        2.0768405239
 C         -1.6535239909       -2.4350917066       -0.2262467391
 C         -2.4553427322       -2.1797963217       -1.3184451686
 C         -2.0581962218       -2.6493174294       -2.5604739149
 C         -0.8806923799       -3.3677719960       -2.6874539641
 C         -0.0910193399       -3.6232208198       -1.5778532117
 C         -0.4799340866       -3.1524641570       -0.3347040708
 H          0.1112014035       -3.3119165074        0.5540139030
 H          0.8297612790       -4.1763713045       -1.6784031904
 H         -0.5711181619       -3.7240058500       -3.6574998148
 H         -2.6662538883       -2.4438978734       -3.4270608816
 H         -3.3593147078       -1.6065535687       -1.1947005434
 H         -4.1969166459       -1.1268102611        1.8152976401
 H         -4.9442806500        1.1147777523        2.1431169483
 H         -4.5178643935        3.5162655842        1.7660686931
 H         -2.5381183064        4.2405959319        0.4945082702
 H         -0.4758905991        3.7602307294       -0.4034647617
 C         -1.0231519526        2.7874836473       -2.1845301090
 C         -0.0450724968        2.5203230665       -3.2861107744
 C         -1.2176505921        1.6078239017       -3.0852501718
 H         -2.0279425034        1.6486225872       -3.7984874371
 H         -1.0188826455        0.6280263855       -2.6846059438
 H         -0.0315756562        3.1847474775       -4.1376699772
 H          0.9291597824        2.1467143615       -3.0056159384
 H         -1.7079103809        3.6138778408       -2.3568607517
