  62
        -98.94954235
 C          1.6224421343       -0.8378153087        0.6957084278
 C          1.4658600893       -1.6156320541       -0.4765391972
 C          0.4618987086       -2.6877282438       -0.4046744383
 C         -0.2558708378       -2.8457658547        0.7216823249
 C         -1.3032564232       -3.9005339178        0.9352177525
 C         -2.7071249701       -3.4150165488        0.5519543219
 C         -2.7893392596       -2.7662889653       -0.8299487224
 H         -3.8385385554       -2.5199784498       -1.0120494588
 H         -2.2409632546       -1.8213877464       -0.8329112424
 C         -2.2631649030       -3.6375589631       -1.9783501267
 H         -2.9601640268       -3.5647238214       -2.8159801247
 H         -2.2301211069       -4.6842798024       -1.6718736522
 C         -0.8901976342       -3.2123819143       -2.5036961199
 H         -0.7299665210       -3.6943116912       -3.4723236074
 H         -0.8869559137       -2.1309618292       -2.6674848320
 C          0.3054235184       -3.5693589833       -1.6108389375
 H          0.2453052191       -4.6203694960       -1.3176454958
 H          1.2153349516       -3.4286229707       -2.2019442554
 H         -3.0411111376       -2.6855417378        1.2937812307
 H         -3.3856522364       -4.2697522170        0.5910326627
 H         -1.0424162231       -4.7788679254        0.3474816959
 H         -1.3009990731       -4.1706363280        1.9930768775
 O         -0.1132666319       -2.0445147689        1.8093506090
 C          0.8205121527       -1.0192387641        1.8209299493
 O          0.8401613874       -0.3536018786        2.8759409865
 H          0.2483003653        1.2908981588        0.2483197152
 C          0.9718816171        1.6945420857       -0.4447685850
 C          2.2986727199        1.2969316155       -0.3417669137
 C          3.2243296065        1.8394549076       -1.2227285599
 C          2.8154424212        2.7296423563       -2.2014111491
 C          1.4845638697        3.0811254752       -2.3329892659
 C          0.5528997267        2.5536646744       -1.4455899301
 N         -0.8079328889        2.8843083039       -1.5291879339
 S         -1.9527641456        1.7200019137       -1.1550585629
 O         -1.5114633228        0.3926809129       -1.5104314218
 O         -3.1585312229        2.1830791869       -1.8115442543
 C         -2.1696947538        1.8690768879        0.6047382853
 C         -2.3263773682        3.1305612300        1.1441146339
 C         -2.5089933751        3.2539822736        2.5117855286
 C         -2.5333542147        2.1216491513        3.3123168856
 C         -2.3817896495        0.8618481067        2.7550604071
 C         -2.2010845686        0.7332925386        1.3876655016
 H         -2.0625992880       -0.2289275606        0.9195305768
 H         -2.3839442199       -0.0199476763        3.3756555881
 H         -2.6673432409        2.2185960393        4.3781172208
 H         -2.6268745019        4.2314833811        2.9511417849
 H         -2.2979987529        3.9861281137        0.4902644790
 H         -1.0690868762        3.4300910545       -2.3373841670
 H          1.1650991458        3.7522759727       -3.1156826786
 H          3.5424330480        3.1412422441       -2.8851635931
 H          4.2618267640        1.5564457235       -1.1534969826
 C          2.6394278283        0.2902784832        0.7299910936
 H          2.5187875532        0.7783521512        1.7084774931
 C          4.0470023308       -0.2574502373        0.6259457854
 C          5.1914958494        0.4808619261        1.2508214707
 C          4.7044543886       -0.7992832218        1.8583821586
 H          5.3193689014       -1.6821319953        1.7688836792
 H          4.1440159027       -0.7495467983        2.7807687109
 H          6.1458784573        0.4755348703        0.7462635316
 H          4.9694599983        1.4021681620        1.7676099957
 H          4.2208356192       -0.7826858011       -0.3060951394
 O          2.1468389501       -1.4428316496       -1.5214040904
