  62
        -98.93806468
 C         -2.5652545297       -1.3318494613        0.1562911801
 C         -2.5939299001       -0.3030011310       -0.8127110295
 C         -3.7699136604        0.5881764886       -0.7849782492
 C         -4.7285562202        0.3803472080        0.1342501709
 C         -5.9821507705        1.1812663476        0.3558566112
 C         -5.7574594707        2.2684842173        1.4201209616
 C         -5.2136627412        3.5914813276        0.8827686420
 H         -5.9953765014        4.0949020476        0.3100670922
 H         -4.9806674113        4.2218556174        1.7439059722
 C         -3.9637596112        3.4756721483        0.0064179718
 H         -3.2646312709        2.7649377484        0.4515879215
 H         -3.4688657515        4.4488493884       -0.0032828979
 C         -4.2768523512        3.0633767687       -1.4396792683
 H         -3.8004432615        3.7658823691       -2.1269121881
 H         -5.3501841112        3.1442679884       -1.6103160082
 C         -3.7936953708        1.6620451690       -1.8386724588
 H         -4.3916314008        1.3063879791       -2.6848665089
 H         -2.7596381208        1.7229610294       -2.1937431689
 H         -6.7069300907        2.4712303568        1.9195862717
 H         -5.0722181205        1.8664525072        2.1706969114
 H         -6.3357384607        1.6104111478       -0.5767579886
 H         -6.7333123702        0.4814919872        0.7280551011
 O         -4.6506518199       -0.6140031723        1.0615712005
 C         -3.5783569896       -1.4829082920        1.1040750301
 O         -3.6389724593       -2.3348807923        2.0129901799
 O         -1.6871897402       -0.1311892605       -1.6708727396
 C         -1.4090577594       -2.3168199810        0.2095061397
 C         -0.1373803996       -1.5677288607        0.5239769598
 C          0.0097173003       -1.0086115111        1.7913311500
 C          1.1421361101       -0.2882544109        2.1172180801
 C          2.1516022000       -0.1047903703        1.1868604701
 C          2.0063819301       -0.6418748999       -0.0840300800
 C          0.8720785302       -1.3797696101       -0.4043975502
 H          0.7722954403       -1.7863758998       -1.3980773903
 N          3.0218914499       -0.4742991892       -1.0363599001
 S          3.8553399795        0.9742949810       -1.1424025297
 O          3.0410232792        2.1029827607       -0.7567302692
 O          4.3900894394        0.9964951717       -2.4865439497
 C          5.1999154096        0.7655405211        0.0082313702
 C          5.4626034894        1.7447518408        0.9459387505
 C          6.5228364995        1.5684508309        1.8216271603
 C          7.2987398199        0.4222497111        1.7438045599
 C          7.0237785101       -0.5508367086        0.7945240396
 C          5.9661373100       -0.3799728587       -0.0841751303
 H          5.7223930601       -1.1113138385       -0.8364223405
 H          7.6291306504       -1.4411115184        0.7371332392
 H          8.1224485600        0.2866637111        2.4267845898
 H          6.7379634894        2.3243969307        2.5597579206
 H          4.8296063692        2.6177029206        0.9736533708
 H          2.7906407400       -0.8340644690       -1.9507229702
 H          3.0323546898        0.4654212299        1.4322635202
 H          1.2434619701        0.1364620088        3.1045569203
 H         -0.7840764396       -1.1438637616        2.5137642800
 H         -1.6246393591       -2.9859970614        1.0538477095
 C         -1.3464780593       -3.1404928006       -1.0594212706
 C         -0.5954695089       -4.4370261003       -1.0656728511
 C         -2.0929645889       -4.4375811008       -1.1219268210
 H         -2.5755350489       -4.7093367906       -2.0488269610
 H         -2.6402794887       -4.7397004612       -0.2409338910
 H         -0.0491970889       -4.7138815299       -1.9545842812
 H         -0.1229234487       -4.7421471005       -0.1444585712
 H         -1.3312760895       -2.5353148402       -1.9582163504
