  62
        -98.93554122
 C          1.0095658955        1.4439991994        0.3349434961
 C          1.6388092175        0.4523838740        1.1246373632
 C          2.8139667214       -0.2237352128        0.5461394218
 C          3.1983686246        0.0972087358       -0.7017266083
 C          4.3349202597       -0.4656056302       -1.5174962599
 C          5.6712479821       -0.6868437027       -0.7927605628
 C          6.0052016429       -2.1628006314       -0.5684889452
 H          5.7043847241       -2.7249754898       -1.4551322263
 H          7.0882391118       -2.2647062047       -0.4697310027
 C          5.3682145921       -2.7941358430        0.6681560660
 H          5.5690981596       -3.8674233183        0.6316263483
 H          5.8538549264       -2.4024692704        1.5646135998
 C          3.8591952092       -2.5836030362        0.8079201269
 H          3.3631597901       -2.6948519045       -0.1566362041
 H          3.4703194768       -3.3733993483        1.4546769129
 C          3.4830672314       -1.2338023606        1.4377628564
 H          2.7710493890       -1.3961914050        2.2530005907
 H          4.3658113330       -0.7759688248        1.8934763193
 H          6.4589036798       -0.2551085795       -1.4124548071
 H          5.6740568692       -0.1487155965        0.1537294026
 H          3.9968017357       -1.4018638895       -1.9701238412
 H          4.4707213388        0.2425299632       -2.3384493753
 O          2.5289790790        1.0187917165       -1.4504808093
 C          1.4169161358        1.6965510202       -0.9748760151
 O          0.9074330922        2.4726559059       -1.8043136254
 O          1.2250176104        0.1313533598        2.2720215523
 C         -0.2234828351        2.1198895918        0.9047497866
 C         -1.3809410625        1.9922384534       -0.0553945223
 C         -2.2596355560        3.0224133218       -0.3629717041
 C         -3.3178070221        2.8013201191       -1.2285513456
 C         -3.5370787772        1.5550757956       -1.7858884423
 C         -2.6603218588        0.5177247707       -1.4865615390
 C         -1.5971503319        0.7469421955       -0.6308054774
 H         -0.9008362220       -0.0533886761       -0.4347666922
 N         -2.8335903022       -0.7618662563       -2.0307423348
 S         -2.3173366469       -2.1134290754       -1.2004341266
 O         -0.8818207599       -2.2364223905       -1.2721443312
 O         -3.0703380747       -3.1987879465       -1.7931993260
 C         -2.8504171952       -1.8616390052        0.4840305373
 C         -4.2104941940       -1.8089893712        0.7220940891
 C         -4.6586781521       -1.5722768370        2.0108651945
 C         -3.7435134158       -1.3868891410        3.0364233133
 C         -2.3824140750       -1.4506174843        2.7836831869
 C         -1.9288195867       -1.6928749087        1.4965512084
 H         -0.8739115787       -1.7408410015        1.2740643615
 H         -1.6622861470       -1.3024084471        3.5728363446
 H         -4.0911785009       -1.1933293382        4.0388735006
 H         -5.7168955888       -1.5281197470        2.2115770623
 H         -4.8913729390       -1.9655979327       -0.0985563590
 H         -3.6948196632       -0.9125577874       -2.5333823136
 H         -4.3650062431        1.3866814563       -2.4570674023
 H         -3.9872112928        3.6133254812       -1.4686293349
 H         -2.1078494464        4.0032445980        0.0562131214
 H         -0.4725476545        1.5102142877        1.7910583056
 C         -0.0001804976        3.5374837205        1.4110662514
 C          1.3763263192        4.0534975949        1.7036147638
 C          0.5967468503        4.6105382784        0.5522844781
 H          0.2047135733        5.6135178531        0.6383336325
 H          0.8922331580        4.3376409852       -0.4482467424
 H          1.5181165893        4.6688365563        2.5795875841
 H          2.2123035723        3.4044536114        1.4848545534
 H         -0.7778515543        3.8485484764        2.1016747045
