  62
        -98.94097994
 C          1.8790736701        0.1539245607        0.4144020599
 C          2.5110627003        0.0732926215       -0.8527063201
 C          3.9526214703        0.3502658118       -0.8855164697
 C          4.5835754100        0.6727974813        0.2580607906
 C          6.0559577299        0.9349504215        0.3833085210
 C          6.8243867301       -0.3513058685        0.7171356905
 C          6.4712502905       -1.5332655081       -0.1855596002
 H          7.0954288206       -2.3751974482        0.1215524695
 H          5.4327325205       -1.8206601184       -0.0062759505
 C          6.6709194907       -1.2688460873       -1.6844517100
 H          7.3213328006       -0.4048405471       -1.8252813995
 H          7.1753819609       -2.1297923270       -2.1281871404
 C          5.3746197108       -1.0592008071       -2.4694768402
 H          4.6808983709       -1.8766592874       -2.2571385507
 H          5.6118576610       -1.1011690165       -3.5359727501
 C          4.6473966605        0.2674153426       -2.2155933496
 H          5.3453309604        1.0984540928       -2.3379229290
 H          3.8613259506        0.3655721029       -2.9702854197
 H          7.8934277701       -0.1428706083        0.6454392108
 H          6.6005632500       -0.6302085191        1.7493206403
 H          6.4239573900        1.3595382121       -0.5488186287
 H          6.2088270696        1.6576435811        1.1866825214
 O          3.9470741498        0.7536135506        1.4521909405
 C          2.5874919298        0.4893158903        1.5701788402
 O          2.1593963396        0.5990929096        2.7341871301
 H         -2.1901899298       -0.0171670797       -0.1660392009
 C         -1.8285359200        0.9293334402        0.2007795596
 C         -0.4928209501        1.0611651402        0.5613066999
 C         -0.0463544004        2.2970172201        1.0091110706
 C         -0.9173476206        3.3698357499        1.0925990810
 C         -2.2436060606        3.2346042998        0.7283414907
 C         -2.7040694503        2.0014990100        0.2782086100
 N         -4.0500775402        1.8245386099       -0.0607456603
 S         -4.5284310398        0.7333089304       -1.2318370610
 O         -3.5987160196        0.6829023512       -2.3356772608
 O         -5.8807537598        1.1323928204       -1.5575829610
 C         -4.5718974396       -0.8319939000       -0.3844745218
 C         -5.1369133798       -0.8912768308        0.8740795781
 C         -5.1902420597       -2.1125786511        1.5262482674
 C         -4.6865192594       -3.2487518807        0.9113792569
 C         -4.1275036192       -3.1740389800       -0.3549207929
 C         -4.0685453293       -1.9545858096       -1.0115989723
 H         -3.6302560092       -1.8491113790       -1.9920194022
 H         -3.7336023390       -4.0576950696       -0.8313071333
 H         -4.7269587793       -4.1983406810        1.4210314764
 H         -5.6227990399       -2.1749643117        2.5117750473
 H         -5.5186928001        0.0110594789        1.3211597085
 H         -4.6136766203        2.6613912398       -0.0552743400
 H         -2.9183154007        4.0746475197        0.7903706611
 H         -0.5538756109        4.3246750198        1.4416648216
 H          0.9859185895        2.4179021401        1.2995880009
 C          0.3980942601       -0.1581508096        0.4667055794
 H          0.1741499604       -0.6466890491       -0.4930547009
 C          0.0535322301       -1.1238017002        1.5886332389
 C         -1.0075853397       -2.1637517203        1.3997239181
 C          0.4345155304       -2.5671152001        1.4570515782
 H          0.7997701103       -3.0848034805        2.3308699880
 H          0.9144058706       -2.8706572295        0.5375860181
 H         -1.6452043298       -2.4041054909        2.2362841279
 H         -1.5039733895       -2.2173019299        0.4425788880
 H          0.1529195298       -0.6754092707        2.5694222091
 O          1.8937276005       -0.2250981180       -1.9119602803
