  62
        -98.93938572
 C          1.7997292396        0.0886236950        0.8361358605
 C          1.8445120465       -0.5268284834       -0.4373830312
 C          1.4064656215       -1.9380015509       -0.5150982000
 C          0.9856157284       -2.5547924173        0.6034191257
 C          0.4902962943       -3.9676455881        0.7815526763
 C         -0.9319381441       -4.1875350250        0.2498468097
 C         -1.1775986221       -3.6520879370       -1.1577797827
 H         -2.2263851945       -3.8398670755       -1.4059099579
 H         -1.0408651054       -2.5689437711       -1.1758010849
 C         -0.3171266420       -4.2862334276       -2.2489354573
 H         -0.7108114757       -3.9355100482       -3.2063744067
 H         -0.4359720999       -5.3717923814       -2.2176874488
 C          1.1772570355       -3.9491472992       -2.2063868010
 H          1.5885210016       -4.1719989739       -3.1950828407
 H          1.7115310327       -4.5817563940       -1.5014138117
 C          1.4831037052       -2.4826384724       -1.9194774405
 H          2.5000923760       -2.2592180135       -2.2634755600
 H          0.8267825234       -1.8457706935       -2.5253768972
 H         -1.6354603408       -3.6946916880        0.9258889089
 H         -1.1409049769       -5.2591564886        0.2714978819
 H          0.4924721432       -4.1614476723        1.8569073258
 H          1.1795512861       -4.6677075537        0.3184288355
 O          0.9425208129       -1.9136279637        1.8091927485
 C          1.3090692388       -0.5894337416        1.9521587225
 O          1.1543330272       -0.1354097503        3.1037440157
 O          2.2401900819        0.0563892818       -1.4796985807
 C          2.1338229878        1.5596347262        1.0278666294
 C          1.4287398049        2.3555336165       -0.0433799777
 C          2.0441901366        3.2801275036       -0.8752521840
 C          1.3127153249        3.9276023449       -1.8567998404
 C         -0.0291862890        3.6519515656       -2.0449340153
 C         -0.6547562485        2.7301658382       -1.2130048461
 C          0.0682879025        2.1224045662       -0.2026527085
 H         -0.4211153593        1.4119496662        0.4477376551
 N         -2.0124087350        2.4022103902       -1.3622594580
 S         -2.4719949281        0.7993374872       -1.1794187724
 O         -1.4424295394       -0.1149572240       -1.6099589932
 O         -3.7351431573        0.7096430908       -1.8836600738
 C         -2.7789780003        0.6227804667        0.5645560186
 C         -3.6261116523        1.5206603711        1.1829334800
 C         -3.8697999594        1.3818229741        2.5399014441
 C         -3.2664616884        0.3551259662        3.2510484416
 C         -2.4231677866       -0.5423069081        2.6144164507
 C         -2.1793086944       -0.4094224309        1.2573181429
 H         -1.5176069241       -1.0767679223        0.7268130913
 H         -1.9382983749       -1.3320197241        3.1664581531
 H         -3.4498073597        0.2525866206        4.3089385504
 H         -4.5247406635        2.0761095477        3.0412161908
 H         -4.0736717404        2.3056212108        0.5965809869
 H         -2.4673364936        2.8301982602       -2.1558693358
 H         -0.5870585692        4.1341415212       -2.8334677693
 H          1.8024618078        4.6408547814       -2.5026107276
 H          3.0996019227        3.4744187338       -0.7771714084
 H          1.6762525865        1.8242158192        1.9962508863
 C          3.6165811046        1.8733171601        1.1525608073
 C          4.5922425132        0.8273180665        1.6009091266
 C          4.6345203426        1.3370538565        0.1932023384
 H          5.4555263252        1.9783645132       -0.0930910766
 H          4.2804636936        0.6976983129       -0.5994308359
 H          5.3795524508        1.1179633086        2.2803228507
 H          4.2121397669       -0.1695473690        1.7725232692
 H          3.7866309924        2.8768044800        1.5307049399
