  62
        -98.94541704
 C          2.5943115841        0.0516284895       -0.5209017950
 C          2.5147126737        0.7824056244        0.6891311941
 C          2.0787573131        2.1773694987        0.5635769681
 C          1.7624874660        2.6729976193       -0.6462103334
 C          1.2541674332        4.0604685386       -0.9282842760
 C         -0.2552989535        4.2143703281       -0.6920815355
 C         -0.6831678185        4.2810866344        0.7750893882
 H         -0.0665039364        5.0101615380        1.3024337021
 H         -1.7106285964        4.6502095907        0.7891585526
 C         -0.6376426880        2.9330843914        1.5082041454
 H         -0.6314494436        2.1214432323        0.7765843209
 H         -1.5463730394        2.8157167235        2.1041913092
 C          0.5440422353        2.7636748800        2.4634656882
 H          0.4423900237        3.4619566418        3.2980941161
 H          0.5143910158        1.7475331247        2.8652884165
 C          1.9203142350        2.9764055967        1.8222027648
 H          2.0830253669        4.0350956228        1.6211150938
 H          2.6803497709        2.6316185045        2.5281609376
 H         -0.7699133261        3.3813288514       -1.1784550335
 H         -0.5696797258        5.1378277310       -1.1845809706
 H          1.7979828098        4.7856721177       -0.3219510835
 H          1.4620705661        4.2603996187       -1.9816599073
 O          1.8811476989        1.9468509902       -1.7905002581
 C          2.2638838795        0.6166229185       -1.7514702881
 O          2.2839477076        0.0531031651       -2.8675715631
 H          0.2967338011       -0.9077150452       -0.5967928148
 C          0.4940063930       -1.6847157201        0.1269139211
 C          1.8001416152       -2.1158126332        0.3221902191
 C          2.0309922649       -3.1352608692        1.2354876835
 C          0.9758503121       -3.6867763487        1.9437107980
 C         -0.3180542913       -3.2338660805        1.7659742320
 C         -0.5593074347       -2.2115662201        0.8525673710
 N         -1.8493338013       -1.6785545287        0.6936017788
 S         -2.2640760295       -0.8199392069       -0.6935748108
 O         -2.0782259363       -1.6472792611       -1.8669897439
 O         -1.5925460406        0.4544235897       -0.6901324633
 C         -4.0021799399       -0.5784049276       -0.3830088471
 C         -4.3877624016        0.4824167011        0.4142846092
 C         -5.7346892177        0.6605163595        0.6871046680
 C         -6.6681105108       -0.2210140585        0.1620709950
 C         -6.2664179245       -1.2796849952       -0.6385857311
 C         -4.9205792798       -1.4636195723       -0.9148303207
 H         -4.5623644416       -2.2650263912       -1.5408678942
 H         -6.9946481750       -1.9608673268       -1.0482698406
 H         -7.7158264853       -0.0798034454        0.3755147571
 H         -6.0506057725        1.4845003239        1.3062364452
 H         -3.6252237919        1.1445421920        0.7910039042
 H         -2.5857869230       -2.3056555684        0.9851319356
 H         -1.1334166443       -3.6547529979        2.3338110142
 H          1.1669395680       -4.4787861506        2.6519337318
 H          3.0346932585       -3.4927395320        1.3980527076
 C          2.8877116219       -1.4373603317       -0.4800660560
 H          2.8157967120       -1.7923659334       -1.5197144078
 C          4.2834136184       -1.7108976261        0.0380406449
 C          5.0343362226       -2.9241395070       -0.4198532393
 C          5.4432456687       -1.5646732812       -0.8989468878
 H          6.3596374458       -1.1361985354       -0.5222096100
 H          5.2213595151       -1.2921052654       -1.9209076743
 H          5.6757885505       -3.4305506800        0.2855020754
 H          4.5435050790       -3.5803595984       -1.1229347026
 H          4.4186020553       -1.3761513016        1.0597150409
 O          2.7854642266        0.2958655023        1.8183086240
