  62
        -98.93512172
 C          2.2707036370        1.3803286856        0.0980819093
 C          2.7993595488        0.5203822778        1.0921131735
 C          3.5265257846       -0.6809418811        0.6418392111
 C          3.6463547584       -0.9016380416       -0.6800461942
 C          4.2994429807       -2.0628492979       -1.3819150279
 C          3.4399049520       -3.3355926761       -1.3425393260
 C          2.8358944983       -3.6589788186        0.0212925184
 H          2.1990917115       -2.8295206888        0.3360245818
 H          2.1852162952       -4.5288035480       -0.1038937594
 C          3.8449050450       -3.9813741009        1.1214839317
 H          3.2739599475       -4.2998675760        1.9972402938
 H          4.4627677400       -4.8239507140        0.8033495830
 C          4.7645165364       -2.8342901886        1.5482377844
 H          5.5794639344       -2.6978380844        0.8424134762
 H          5.2221447938       -3.1221578367        2.4990387415
 C          4.0533262521       -1.5070464593        1.7903273590
 H          3.2016283244       -1.6716990481        2.4601791333
 H          4.7290010882       -0.8429097297        2.3425107974
 H          4.0503889825       -4.1742374024       -1.6822713478
 H          2.6140140196       -3.2099408752       -2.0478691495
 H          5.2839702727       -2.2492536469       -0.9633709484
 H          4.4306449933       -1.7646228697       -2.4246140850
 O          3.1181896852       -0.0503973743       -1.6041270292
 C          2.4096930780        1.0875943277       -1.2576178753
 O          1.9806474700        1.7258859823       -2.2393852271
 O          2.6725801863        0.7494929596        2.3254435945
 C          1.5074123880        2.5991458815        0.5892917319
 C          0.0440548057        2.2608129167        0.7126822284
 C         -0.6445069598        2.4332297100        1.9070102316
 C         -1.9744902723        2.0630656760        2.0142738462
 C         -2.6403664761        1.5054043004        0.9369246546
 C         -1.9590547913        1.3292071437       -0.2599269761
 C         -0.6333174702        1.7131096925       -0.3689611339
 H         -0.1107017865        1.5670387430       -1.3036298848
 N         -2.6221675604        0.7116513174       -1.3527131498
 S         -2.6709753661       -0.9691133300       -1.1920011973
 O         -1.4795520681       -1.4690019669       -0.5402543133
 O         -2.9410121827       -1.4832485432       -2.5170062290
 C         -4.0907784971       -1.2264177442       -0.1513713201
 C         -3.9167885711       -1.6348286763        1.1561819567
 C         -5.0348274546       -1.8047263900        1.9580634455
 C         -6.2985465036       -1.5632823287        1.4408072604
 C         -6.4558805578       -1.1554553164        0.1242872816
 C         -5.3426415366       -0.9838103904       -0.6827872760
 H         -5.4161751294       -0.6742637689       -1.7119524989
 H         -7.4402169249       -0.9698898085       -0.2741423256
 H         -7.1661514264       -1.6947315462        2.0679415696
 H         -4.9140911817       -2.1216407388        2.9814574672
 H         -2.9141444053       -1.8055046009        1.5146799776
 H         -2.1714609673        0.9224593476       -2.2341668675
 H         -3.6736392436        1.2085222460        1.0132077963
 H         -2.4955302670        2.2024428076        2.9488658450
 H         -0.1231084345        2.8411453119        2.7605135847
 H          1.8926546310        2.7786477117        1.6053640129
 C          1.7748549983        3.8532860596       -0.2304404223
 C          0.7382709898        4.5346927323       -1.0682791037
 C          1.1969485802        5.1661738040        0.2095608392
 H          1.8172790123        6.0479739454        0.1611109993
 H          0.5135554737        5.1489256371        1.0451560523
 H          1.0586629952        4.9604892528       -2.0069681010
 H         -0.2541739457        4.1132639225       -1.1010569112
 H          2.7881641898        3.8728738358       -0.6183743956
