  62
        -98.94330203
 C         -1.2150167986       -0.7012290638        0.6034806263
 C         -1.9203909257       -0.5117895376       -0.6104910006
 C         -2.8944331573        0.5911608967       -0.6189327672
 C         -2.9947931090        1.3965551971        0.4530104257
 C         -3.9795118537        2.5198733570        0.5959883636
 C         -5.2832389488        2.0364839325        1.2471325089
 C         -5.8603846672        0.7722352958        0.6101450676
 H         -5.1777110290       -0.0612233641        0.7906454264
 H         -6.7926222045        0.5426629255        1.1305506907
 C         -6.1301410265        0.8869963956       -0.8966395778
 H         -6.1608934999        1.9374038201       -1.1883628487
 H         -7.1131733570        0.4620498732       -1.1098194239
 C         -5.1235441119        0.1461947593       -1.7789192984
 H         -5.0221286674       -0.8851165681       -1.4316654186
 H         -5.5234350649        0.1113222252       -2.7957462142
 C         -3.7233750087        0.7678102075       -1.8599415116
 H         -3.1762822671        0.2578464815       -2.6586396549
 H         -3.8029885857        1.8250049943       -2.1223672144
 H         -6.0165501993        2.8428839168        1.1895247304
 H         -5.0869936862        1.8303213470        2.3019494923
 H         -3.5310936910        3.2913539254        1.2246504378
 H         -4.1848217153        2.9424184693       -0.3858327553
 O         -2.2261155059        1.2475531818        1.5620350616
 C         -1.3184776350        0.2059055388        1.6605125161
 O         -0.6622326604        0.1991913141        2.7222664773
 H          1.0047022456        0.3247058683       -0.2232337303
 C          1.3244155967       -0.5636393731       -0.7462153921
 C          0.7701275797       -1.7901599173       -0.4040218723
 C          1.1564939224       -2.9141908777       -1.1212475514
 C          2.0707553484       -2.7998338678       -2.1550179035
 C          2.6338120056       -1.5791735171       -2.4794582221
 C          2.2496584585       -0.4472217336       -1.7686356731
 N          2.7872531048        0.8149241923       -2.0606912883
 S          2.9983338810        1.9327595471       -0.8386039564
 O          1.7349741854        2.5171897043       -0.4610080631
 O          3.9829278065        2.8529159591       -1.3677952028
 C          3.7069656295        1.0112868968        0.5157002544
 C          4.9800485585        0.5032835083        0.3392054013
 C          5.5504739166       -0.2503025207        1.3511846055
 C          4.8393210122       -0.4880009970        2.5179606818
 C          3.5659334885        0.0332092365        2.6829783650
 C          2.9914846821        0.7919233187        1.6747124244
 H          1.9995410895        1.2041380126        1.7806100001
 H          3.0046666337       -0.1477158692        3.5861056574
 H          5.2790496937       -1.0800591799        3.3049121746
 H          6.5431817387       -0.6518389698        1.2275039958
 H          5.5052313836        0.7185959843       -0.5770114666
 H          3.5465181414        0.8195600972       -2.7250213722
 H          3.3498334320       -1.4959452104       -3.2824056589
 H          2.3549118885       -3.6787493219       -2.7134872748
 H          0.7282740698       -3.8750749703       -0.8883595002
 C         -0.1874191886       -1.8081101388        0.7630225992
 H          0.3928539939       -1.5197859999        1.6561947254
 C         -0.7727369221       -3.1816493023        1.0573159944
 C         -2.1578899167       -3.3325785409        1.6107096790
 C         -1.8532009458       -3.7927861466        0.2184167852
 H         -1.8147499397       -4.8558666348        0.0297511402
 H         -2.2256842052       -3.2130064843       -0.6105363803
 H         -2.7471048155       -2.4350091961        1.7350778680
 H         -2.3267345975       -4.0745340938        2.3769263620
 H         -0.0260541555       -3.8614802624        1.4558082433
 O         -1.7575130601       -1.2193004917       -1.6378836358
