  62
        -98.93433155
 C         -2.2364969844       -1.0277211186        0.4838368674
 C         -2.3665820728       -0.0487308708       -0.5295554681
 C         -3.3272499597        1.0426768590       -0.2690124709
 C         -3.9819321336        1.0889124302        0.9051778091
 C         -4.9814121941        2.0861965182        1.4533135130
 C         -5.6685627203        3.0911100653        0.5320755078
 C         -6.6282600284        2.4759734107       -0.4858939999
 H         -7.4936026820        2.0766712845        0.0492115476
 H         -6.9830397593        3.2722257593       -1.1439005227
 C         -6.0524045762        1.3475050917       -1.3378520711
 H         -5.7934319869        0.5008643031       -0.6985908701
 H         -6.8388877020        1.0073875357       -2.0169467133
 C         -4.8372118662        1.7212576975       -2.1846380433
 H         -4.6353570917        0.8832894094       -2.8572452556
 H         -5.0714867928        2.5928920279       -2.7985856841
 C         -3.5445713484        2.0064029710       -1.3997623798
 H         -2.6985117127        1.8744672194       -2.0806014602
 H         -3.5171334469        3.0322258848       -1.0403155867
 H         -4.9299482339        3.7110006984        0.0324699108
 H         -6.2527658333        3.7531444564        1.1771196394
 H         -5.7443754112        1.4899388879        1.9640858530
 H         -4.4508174420        2.6403191995        2.2357669174
 O         -3.7618718514        0.1623139153        1.8855662800
 C         -2.9010358742       -0.9050028545        1.7044279610
 O         -2.8053392764       -1.6578177365        2.6952593893
 H          0.2636867604       -0.3888055689        1.4220301275
 C          0.7212685317       -0.7972117931        0.5276113765
 C          0.0355300496       -1.7663532793       -0.1959202557
 C          0.6333472436       -2.2846723879       -1.3362801002
 C          1.8782448334       -1.8341045389       -1.7405847140
 C          2.5510014035       -0.8628277194       -1.0233584273
 C          1.9628578809       -0.3373257885        0.1199642710
 N          2.6386565481        0.6614813453        0.8486593939
 S          4.1775031704        0.2875162700        1.4131690052
 O          4.3194104985       -1.1303276394        1.6542518283
 O          4.3856473049        1.1563737684        2.5515336581
 C          5.2586553583        0.7923122484        0.0920647905
 C          6.1096071279       -0.1268914748       -0.4897326800
 C          6.9490027157        0.2904850890       -1.5110151691
 C          6.9229944653        1.6121490294       -1.9291949014
 C          6.0640760405        2.5233556140       -1.3325594416
 C          5.2234085111        2.1131242431       -0.3102236353
 H          4.5447995675        2.7892909678        0.1825593853
 H          6.0468603570        3.5503615983       -1.6601741114
 H          7.5760563728        1.9344773602       -2.7247788056
 H          7.6176588921       -0.4160537002       -1.9758434229
 H          6.0905120988       -1.1449474101       -0.1349635774
 H          2.0851322753        1.0559954129        1.5957241490
 H          3.5166060111       -0.5041089045       -1.3404404001
 H          2.3281702972       -2.2419767881       -2.6328673619
 H          0.1168976570       -3.0272374449       -1.9216529724
 C         -1.3051760431       -2.2173120345        0.3318311932
 H         -1.1460472859       -2.5834823704        1.3605649435
 C         -1.9034045028       -3.3781396814       -0.4495497811
 C         -3.3862724887       -3.5914915365       -0.5012039900
 C         -2.6450294985       -3.1813468106       -1.7362241648
 H         -2.5141517265       -3.9135640685       -2.5195706541
 H         -2.7586962887       -2.1714795705       -2.0960115303
 H         -3.7605405509       -4.6020216728       -0.4334781101
 H         -4.0147496950       -2.8611306418       -0.0119764097
 H         -1.2956469905       -4.2741863533       -0.3678385219
 O         -1.7171916209       -0.0661054513       -1.6056908886
