  62
        -98.94182690
 C          1.1965834502        1.5308262793        0.5072002910
 C          2.1635158204        1.1965541995       -0.4695426289
 C          3.2206401499        0.2626976888       -0.0457658291
 C          3.2133190893       -0.2230163519        1.2072430906
 C          4.2042717987       -1.1564837627        1.8563789803
 C          4.6753449385       -2.3672612524        1.0390471697
 C          3.6331760986       -2.9503062814        0.0728667090
 H          3.5714331581       -4.0295489615        0.2279749584
 H          2.6420576387       -2.5420186111        0.2846431590
 C          3.9833205091       -2.7097591206       -1.3978466207
 H          5.0494361591       -2.9020941610       -1.5399300705
 H          3.4346755290       -3.4312877401       -2.0082299213
 C          3.6493303698       -1.3187649802       -1.9345185700
 H          4.0403031701       -1.2477594197       -2.9525656298
 H          2.5634730999       -1.2016826797       -1.9990697102
 C          4.1981195200       -0.1418589409       -1.1109228991
 H          5.1767008998       -0.3720164215       -0.6966386290
 H          4.2928038506        0.7193249495       -1.7779055786
 H          4.9729096080       -3.1342789930        1.7561903993
 H          5.5686083288       -2.1012178924        0.4751724501
 H          5.0761210789       -0.5702622732        2.1616640309
 H          3.7114970683       -1.5023350631        2.7683044299
 O          2.2586602992        0.1243543879        2.1161856205
 C          1.2158209896        0.9703189085        1.7821711207
 O          0.3806082894        1.1448117883        2.6946582905
 H         -0.4338918303       -0.1820513896       -0.1568235705
 C         -0.9514443198        0.3913223410       -0.9096774903
 C         -0.8032022393        1.7702492710       -0.9412187194
 C         -1.4549416087        2.4804937718       -1.9419196592
 C         -2.2187358287        1.8148764627       -2.8856003698
 C         -2.3695427292        0.4401596528       -2.8432056907
 C         -1.7255363298       -0.2781142981       -1.8425009309
 N         -1.8386009104       -1.6735817981       -1.7483228518
 S         -1.8849070311       -2.3919902790       -0.2380575823
 O         -0.5763002813       -2.3890008599        0.3663814581
 O         -2.4598738816       -3.6973046686       -0.4859773232
 C         -3.0384264510       -1.3981376891        0.6922359080
 C         -4.3712878409       -1.4944335984        0.3378315675
 C         -5.3016459208       -0.7018521884        0.9880574977
 C         -4.8852119508        0.1780010508        1.9762042884
 C         -3.5467308908        0.2585182001        2.3250318488
 C         -2.6103188910       -0.5356893499        1.6800732086
 H         -1.5643962810       -0.4819923005        1.9404430690
 H         -3.2120537608        0.9378381595        3.0930386894
 H         -5.6064550507        0.8018694808        2.4800589386
 H         -6.3442023408       -0.7686324578        0.7221022474
 H         -4.6552414610       -2.1996420178       -0.4262699930
 H         -2.4909073904       -2.0973039575       -2.3912453323
 H         -2.9675408792       -0.0739972266       -3.5796609312
 H         -2.7111171582        2.3770979134       -3.6643382896
 H         -1.3573298982        3.5528149118       -1.9878251285
 C          0.0261027907        2.4230574200        0.1405996012
 H         -0.5996778396        2.4883711497        1.0440359211
 C          0.5006001613        3.8144579700       -0.2246649878
 C         -0.3497127283        5.0095943102        0.0820677727
 C          0.8955031614        4.7528974892        0.8747225029
 H          1.7497516617        5.3952945690        0.7229068935
 H          0.7939907710        4.3960064086        1.8896716226
 H         -0.3490534677        5.8346923206       -0.6141852168
 H         -1.2994010185        4.8386623903        0.5661686923
 H          1.0963326216        3.8248211303       -1.1297394476
 O          2.1503011609        1.6543663702       -1.6418246186
