  62
        -98.94078926
 C         -2.5731834265       -1.3588466653        0.2554063485
 C         -2.7882751879       -0.5090207182       -0.8569173538
 C         -3.6170782671        0.6813038596       -0.6058145159
 C         -4.1074250572        0.9048339930        0.6259716468
 C         -4.9164519172        2.1033044488        1.0272570691
 C         -4.0188587488        3.2308711606        1.5554577000
 C         -2.8298233769        3.5527681709        0.6496594891
 H         -2.2900184589        4.3864465071        1.1045154142
 H         -2.1434064452        2.7018737348        0.6396063809
 C         -3.2094611575        3.9168505373       -0.7925840477
 H         -2.6266906821        4.7890912364       -1.0963218948
 H         -4.2625567767        4.1967643357       -0.8393159365
 C         -2.9305496330        2.8177832384       -1.8195514208
 H         -3.0190911030        3.2554018125       -2.8176795843
 H         -1.8997595676        2.4694989538       -1.7067642585
 C         -3.8652383535        1.6021792954       -1.7675325919
 H         -4.9040297713        1.9377174216       -1.7791775560
 H         -3.6852538502        1.0065573103       -2.6673416695
 H         -4.6298437787        4.1258507744        1.6861001350
 H         -3.6314135390        2.9369878268        2.5336656499
 H         -5.6067324885        1.8018477750        1.8168897874
 H         -5.4892078050        2.4520465819        0.1701918322
 O         -3.8792401541        0.0694824027        1.6708027584
 C         -3.1033932184       -1.0654819100        1.5159124371
 O         -2.9662947766       -1.7355747544        2.5586227237
 O         -2.3233582336       -0.7120100118       -2.0097173266
 C         -1.7360978935       -2.6285540498        0.1859515738
 C         -0.2812892822       -2.2839551976        0.3752808522
 C          0.4592988679       -2.8194597539        1.4214897474
 C          1.7798672128       -2.4485116519        1.6100422763
 C          2.3857885915       -1.5379550241        0.7628701163
 C          1.6517886847       -0.9943167539       -0.2834727806
 C          0.3323831391       -1.3725642074       -0.4742832038
 H         -0.2366110105       -0.9463338056       -1.2879530987
 N          2.2562896850       -0.0549350242       -1.1449493038
 S          2.8046517277        1.3579290263       -0.4131357857
 O          2.0485034737        1.6596675813        0.7816586222
 O          2.7934912298        2.3620960723       -1.4543990063
 C          4.4915191982        0.9746444394        0.0072135716
 C          5.3455293963        0.6064421364       -1.0141652013
 C          6.6611865620        0.2983130243       -0.7075186863
 C          7.0984227590        0.3653556119        0.6072245115
 C          6.2295158944        0.7404755316        1.6204719935
 C          4.9114905381        1.0489993216        1.3205927231
 H          4.1976323492        1.3385207961        2.0752742513
 H          6.5712366023        0.7923552555        2.6417307728
 H          8.1226062278        0.1237910441        0.8438088350
 H          7.3398778081        0.0062717355       -1.4925521022
 H          4.9648445528        0.5706395621       -2.0211914238
 H          1.6700886039        0.1790673239       -1.9349162019
 H          3.4118034227       -1.2413397425        0.9084371535
 H          2.3426504097       -2.8706630877        2.4285102509
 H         -0.0134216676       -3.5138659209        2.1006564478
 H         -2.0522437218       -3.2248894976        1.0556419081
 C         -2.0154970385       -3.4556674211       -1.0627776716
 C         -0.9827619454       -3.7752042926       -2.0985687306
 C         -1.4611869043       -4.8459589303       -1.1682138437
 H         -2.0949719789       -5.6293621940       -1.5549668513
 H         -0.7854677577       -5.1668345147       -0.3895682673
 H         -1.3028810606       -3.7991380159       -3.1292262877
 H          0.0172760727       -3.3945019179       -1.9630968037
 H         -3.0265968795       -3.3091151589       -1.4278132960
