  62
        -98.94383087
 C         -1.5054120145       -1.5760170796       -0.1651785151
 C         -1.3886980288       -0.2682804291        0.3696315149
 C         -2.6529808757        0.3630071004        0.7788571858
 C         -3.8055474371       -0.3251645326        0.7076410626
 C         -5.1637325414        0.1721809667        1.1228853310
 C         -5.8851302882        0.9957301374        0.0473667358
 C         -5.3149315850        2.3945806091       -0.1898030187
 H         -6.0382212137        2.9352475761       -0.8035490953
 H         -5.2389663238        2.9202464989        0.7624952260
 C         -3.9541853443        2.4099290991       -0.9000563352
 H         -3.9693451529        3.1555932297       -1.6982049177
 H         -3.7803220386        1.4406747447       -1.3732064531
 C         -2.7678340168        2.7393273756        0.0062686663
 H         -2.8658819413        3.7623377943        0.3757893641
 H         -1.8556488246        2.6784001727       -0.5916035096
 C         -2.6053764955        1.7984039965        1.2071159125
 H         -1.6233688364        1.9754146818        1.6523951973
 H         -3.3741241720        2.0005595678        1.9524968164
 H         -6.9269664286        1.0984958442        0.3598964387
 H         -5.8744292568        0.4336410448       -0.8895216038
 H         -5.0739477396        0.7627377192        2.0351013657
 H         -5.7656196108       -0.7130880815        1.3397008303
 O         -3.8629323305       -1.6086248342        0.2597741946
 C         -2.7268609282       -2.2531514332       -0.2028482493
 O         -2.9292260056       -3.4179707181       -0.6022270817
 O         -0.3034597191        0.3486556342        0.5082579192
 C         -0.2917044303       -2.3389114752       -0.6676718408
 C          0.8411561652       -2.1983239658        0.3177036247
 C          0.6914776546       -2.7504050558        1.5875128642
 C          1.6906347102       -2.6282769306        2.5330139208
 C          2.8580600672       -1.9479943603        2.2340063473
 C          3.0174078580       -1.3960375591        0.9687185208
 C          2.0167037292       -1.5303640506        0.0163241140
 H          2.1628131302       -1.0869153046       -0.9536557771
 N          4.1960634204       -0.7158908459        0.6361933478
 S          4.2127891859        0.5286639713       -0.4715122648
 O          4.0742247320        0.0063784256       -1.8090261750
 O          5.4609270565        1.2139226520       -0.2006774466
 C          2.8583100330        1.6220670182       -0.0866839142
 C          2.6550459583        2.0038405502        1.2231370160
 C          1.6465320713        2.9085988389        1.5068206348
 C          0.8684912530        3.4212391587        0.4818529274
 C          1.0861687183        3.0282332108       -0.8280224780
 C          2.0888015421        2.1182648354       -1.1168833085
 H          2.2837505486        1.7783339730       -2.1216496997
 H          0.4758012642        3.4220619047       -1.6261156557
 H          0.0823383159        4.1255097762        0.7056895912
 H          1.4663414839        3.2078282440        2.5272124728
 H          3.2757763148        1.5942536298        2.0036962768
 H          4.8345432883       -0.5535555538        1.4001476651
 H          3.6384435594       -1.8444214820        2.9724744601
 H          1.5588670515       -3.0596717358        3.5139585530
 H         -0.2275952773       -3.2697286755        1.8246881140
 H         -0.6014466750       -3.3971481883       -0.6786673885
 C          0.1113795961       -1.9885401521       -2.0921058959
 C         -0.9167547514       -1.5989097168       -3.1106641999
 C          0.0709540951       -0.5864938035       -2.6177386928
 H          0.8620703838       -0.2730729061       -3.2840226768
 H         -0.2703784655        0.1889095607       -1.9504496926
 H         -0.8126450052       -1.9770124464       -4.1166019476
 H         -1.9418802686       -1.5195443080       -2.7783691994
 H          0.9254341743       -2.6141593408       -2.4470752713
