  62
        -98.93955579
 C         -2.6575559302       -0.8722937016        0.4064971399
 C         -2.6635533110        0.2747822788        1.2374640694
 C         -3.4557414713        1.4119835682        0.7592291186
 C         -4.1118619808        1.3209414374       -0.4120937116
 C         -4.9849440111        2.3835291767       -1.0226120624
 C         -4.2142076912        3.4407002567       -1.8250791926
 C         -3.4015921819        4.4280136374       -0.9865539128
 H         -3.0922017620        5.2352818573       -1.6532709431
 H         -4.0428167924        4.8659160575       -0.2209672732
 C         -2.1521787219        3.8232069183       -0.3308615121
 H         -1.9053092013        2.8776774581       -0.8199303515
 H         -1.3019314921        4.4920541485       -0.4820049421
 C         -2.2796422324        3.5848757389        1.1738943580
 H         -2.3963872230        4.5415299091        1.6877725775
 H         -1.3540981023        3.1233464794        1.5274057885
 C         -3.4461923021        2.6712566886        1.5726004580
 H         -3.3190519524        2.3896791491        2.6207617982
 H         -4.3925682223        3.2005730981        1.4650536974
 H         -4.9465088912        4.0063858661       -2.4057201932
 H         -3.5536775807        2.9305488867       -2.5301163522
 H         -5.5686831716        2.8714823769       -0.2415626529
 H         -5.6704783306        1.8698621861       -1.6999812624
 O         -4.0670067401        0.2082261171       -1.1905275511
 C         -3.3219290498       -0.9032187425       -0.8201756903
 O         -3.3458983391       -1.8287318529       -1.6523828999
 O         -2.0365382214        0.3436528195        2.3295207796
 C         -1.8447263799       -2.0773053511        0.8504292208
 C         -0.6246838395       -2.1882415810       -0.0314473287
 C         -0.4375231587       -3.1985138813       -0.9643247982
 C          0.6962874616       -3.2118300612       -1.7593556778
 C          1.6615763111       -2.2294984007       -1.6402130979
 C          1.4880686903       -1.2178588104       -0.7032480984
 C          0.3531114900       -1.2075097605        0.0933726012
 H          0.2112724194       -0.4200411002        0.8231728308
 N          2.4591245499       -0.2051334199       -0.5788999785
 S          4.0751707501       -0.7031798392       -0.5603290377
 O          4.5078764506       -0.8938561197       -1.9220829775
 O          4.2327254202       -1.8421851588        0.3162969929
 C          4.8774363692        0.7293908714        0.1310552619
 C          5.1874429391        1.7871848812       -0.7025081684
 C          5.7970237684        2.9082571717       -0.1621752387
 C          6.0845100079        2.9528071624        1.1940485813
 C          5.7679995280        1.8829129927        2.0176479917
 C          5.1567874587        0.7591508622        1.4841367020
 H          4.9019076488       -0.0993226877        2.0848851523
 H          5.9952310476        1.9190294433        3.0709660018
 H          6.5611135574        3.8255728228        1.6117346411
 H          6.0470871083        3.7412271215       -0.7991954890
 H          4.9551657295        1.7035608806       -1.7513234285
 H          2.2635698993        0.4078451304        0.2011998611
 H          2.5498493713       -2.2362170106       -2.2512467776
 H          0.8298254922       -4.0003160215       -2.4849153074
 H         -1.1829524984       -3.9678189617       -1.0783469281
 H         -1.5015397503       -1.8336445905        1.8661855808
 C         -2.6815880094       -3.3358366614        0.9117073610
 C         -2.1937475092       -4.5052058208        1.7119799418
 C         -3.3589854097       -3.6982736411        2.1979870010
 H         -4.3447155895       -4.1364530315        2.1546150808
 H         -3.2101511103       -3.0423392806        3.0433241807
 H         -2.3781687286       -5.5002718311        1.3369540821
 H         -1.2506528094       -4.3974368202        2.2263758421
 H         -3.2209006889       -3.5349373820       -0.0063047691
