  62
        -98.94605181
 C         -1.4477695429       -1.0886418435        0.0931228329
 C         -2.3727629509       -0.7343214269        1.1019473108
 C         -3.0041663766        0.5850446795        0.9586179282
 C         -2.6434001612        1.3784336528       -0.0667964138
 C         -3.2353308881        2.7279221165       -0.3523480510
 C         -4.4364588338        2.6183620943       -1.3018848607
 C         -5.4588593836        1.5614509437       -0.8845104324
 H         -6.2761657569        1.5959260146       -1.6080533116
 H         -5.0021653030        0.5722040808       -0.9625758017
 C         -6.0226623058        1.7473520521        0.5311346656
 H         -5.8413319805        2.7673781525        0.8721988398
 H         -7.1049039934        1.6049266335        0.4987154295
 C         -5.4756641797        0.7624921373        1.5662470073
 H         -5.5717186219       -0.2581771084        1.1871776238
 H         -6.0932393651        0.8362174963        2.4654802284
 C         -4.0188901884        0.9830868796        1.9932390704
 H         -3.8777808390        2.0232223486        2.2950934852
 H         -3.8274126642        0.3456499997        2.8618235740
 H         -4.9218852860        3.5944105182       -1.3579250004
 H         -4.0687067295        2.3634865164       -2.2983209449
 H         -3.5407782919        3.1911458643        0.5839641554
 H         -2.4709366194        3.3506453638       -0.8201350422
 O         -1.7203553800        1.0193215700       -0.9945637122
 C         -1.1098487448       -0.2274011085       -0.9521725134
 O         -0.3024750733       -0.4377761729       -1.8731028594
 H          0.5661362690       -0.6827996341        1.6664787195
 C          1.2512898418       -1.2515201220        1.0492696760
 C          0.7453927345       -2.2301508338        0.2019737871
 C          1.6384765949       -2.9537969344       -0.5764257146
 C          2.9962118441       -2.6870777694       -0.5195953891
 C          3.4923358968       -1.6987555349        0.3096445736
 C          2.6077979319       -0.9771582627        1.1011365096
 N          3.0992362640        0.0469458663        1.9364022845
 S          4.0154139211        1.2307938877        1.1795434485
 O          5.3557766093        0.7374761997        0.9853556215
 O          3.8892578578        2.4024540846        2.0181685079
 C          3.2286870181        1.4975477445       -0.3975477798
 C          3.8340977568        1.0497266415       -1.5531148316
 C          3.1798095273        1.2263193766       -2.7615164154
 C          1.9390783129        1.8418150963       -2.7924104796
 C          1.3453457201        2.2886988559       -1.6227224615
 C          1.9918256484        2.1111123350       -0.4116407484
 H          1.5574363492        2.4464194284        0.5177606246
 H          0.3729680318        2.7537481786       -1.6508660774
 H          1.4232579259        1.9680653963       -3.7307992503
 H          3.6353305404        0.8765901929       -3.6739388337
 H          4.8002153096        0.5770761263       -1.4848581588
 H          2.3800956361        0.4777291553        2.4999645565
 H          4.5442543205       -1.4681257745        0.3560761695
 H          3.6772158483       -3.2534645863       -1.1361364818
 H          1.2716639432       -3.7211553783       -1.2378424009
 C         -0.7492639644       -2.4343092502        0.1664122792
 H         -1.0615984907       -2.8781622089        1.1236029672
 C         -1.2118803078       -3.3329032171       -0.9612415174
 C         -1.2332128262       -4.8209720483       -0.7839424147
 C         -2.5188244213       -4.0522723302       -0.8217294518
 H         -3.1526507176       -4.1453492362       -1.6908654599
 H         -3.0629632874       -3.9166341938        0.1017637573
 H         -0.9867344627       -5.4452230444       -1.6295153596
 H         -0.9080018597       -5.2166645438        0.1663386146
 H         -0.9614103258       -2.9347804952       -1.9381048349
 O         -2.6497536773       -1.4798018678        2.0814078656
