  62
        -98.94304945
 C          2.6781697052        1.1907928140        0.1307826224
 C          2.7276392106        0.1875244545       -0.8667051193
 C          3.9475806083       -0.6293987217       -0.8831705319
 C          4.9366532805       -0.3747748395       -0.0071897561
 C          6.2502803495       -1.1033666985        0.0813883844
 C          6.1922554005       -2.3975992083        0.9044653211
 C          5.4598992547       -3.5615934520        0.2356846742
 H          5.8651432088       -3.7174009921       -0.7645744581
 H          5.6814786314       -4.4569040881        0.8199828027
 C          3.9365350450       -3.3892164164        0.1553661914
 H          3.6202517250       -2.6101525897        0.8528837407
 H          3.4481132179       -4.3147331951        0.4683123481
 C          3.4088336894       -3.0478457119       -1.2382217012
 H          2.3268222332       -2.9085075173       -1.1698501585
 H          3.6000051885       -3.8821071628       -1.9168142077
 C          4.0116825504       -1.7751262203       -1.8472513175
 H          5.0403505783       -1.9562872230       -2.1581153856
 H          3.4216839358       -1.5027217382       -2.7257040955
 H          5.7254574519       -2.1783501887        1.8675791625
 H          7.2220701397       -2.7068797225        1.0975798012
 H          6.9524321817       -0.4200336396        0.5639650954
 H          6.6149321923       -1.3247315814       -0.9220061799
 O          4.8604477646        0.6204281574        0.9170694305
 C          3.7258922914        1.4083566810        1.0246047557
 O          3.7714270263        2.2556568406        1.9401444964
 O          1.8066523214       -0.0145399094       -1.6996966098
 C          1.4509750588        2.0754156542        0.2483164458
 C          0.2150421898        1.2309097313        0.4448015365
 C          0.2321875378        0.2243956675        1.4070474151
 C         -0.8804977106       -0.5635669560        1.6269662569
 C         -2.0397589731       -0.3639313901        0.8971745195
 C         -2.0752781059        0.6475433314       -0.0513521493
 C         -0.9535713852        1.4391943483       -0.2697770172
 H         -0.9985270232        2.2197378240       -1.0133835158
 N         -3.2456979132        0.8566324740       -0.7976090996
 S         -4.7214606419        0.9091405964       -0.0041068510
 O         -5.5858040321        1.6794232456       -0.8715044830
 O         -4.5779119314        1.3912079131        1.3500711450
 C         -5.2698806484       -0.7847082368        0.0036482343
 C         -5.3254588895       -1.4583717384       -1.2007018981
 C         -5.7627061682       -2.7731765447       -1.2119880182
 C         -6.1376691449       -3.3877300690       -0.0264167423
 C         -6.0795525188       -2.6966196979        1.1740354161
 C         -5.6420681471       -1.3813461290        1.1922807077
 H         -5.5751913802       -0.8068795816        2.1025958806
 H         -6.3718772651       -3.1760115311        2.0945102766
 H         -6.4776084683       -4.4112986360       -0.0382599319
 H         -5.8089838802       -3.3141205653       -2.1434562609
 H         -5.0279672669       -0.9456983329       -2.1001832444
 H         -3.1717428613        1.5944918897       -1.4826285614
 H         -2.9098992793       -0.9781065593        1.0615019019
 H         -0.8462902779       -1.3441601466        2.3720391528
 H          1.1368147904        0.0670427508        1.9794043189
 H          1.5952601874        2.6797458542        1.1562966616
 C          1.3718639610        3.0048233675       -0.9454464964
 C          0.7216337235        4.3490329349       -0.8179580758
 C          2.2108447303        4.2457644294       -0.9500478733
 H          2.6702277586        4.5549933953       -1.8768735655
 H          2.8188112694        4.4348402729       -0.0771631554
 H          0.1606731458        4.7346158166       -1.6564396142
 H          0.3156353921        4.6199194705        0.1452673036
 H          1.2667772507        2.4694337598       -1.8824013272
