  62
        -98.93871593
 C         -1.4172073476       -1.5849855625       -0.0554418965
 C         -1.4665106504       -0.1964389093        0.2151095552
 C         -2.7986366152        0.3527933806        0.5158361210
 C         -3.8598682520       -0.4738206602        0.5367472053
 C         -5.2878533361       -0.0516195620        0.7376760201
 C         -5.8377620275        0.5724655317       -0.5610315233
 C         -6.1802997829        2.0585730236       -0.4521156870
 H         -6.3471880128        2.4301553341       -1.4654882549
 H         -7.1186169462        2.1669415757        0.0961224000
 C         -5.1320678973        2.9383322000        0.2358147514
 H         -5.2155924139        2.8291582620        1.3181189760
 H         -5.3895999983        3.9747729282        0.0071198608
 C         -3.6737850402        2.6907535268       -0.1716205132
 H         -3.6226928529        2.2466179566       -1.1657955623
 H         -3.1709425689        3.6581372765       -0.2277637762
 C         -2.8715440910        1.8241646786        0.8166935466
 H         -1.8290818434        2.1567007275        0.8105349632
 H         -3.2593491138        1.9713773714        1.8283587641
 H         -6.7367610353        0.0367437715       -0.8698664792
 H         -5.0984817854        0.4249000314       -1.3510967715
 H         -5.8573841478       -0.9429711518        1.0015865123
 H         -5.3501382839        0.6577592939        1.5599254764
 O         -3.7650824015       -1.8084701161        0.2954124109
 C         -2.5473556326       -2.3979612363       -0.0064840914
 O         -2.6022275542       -3.6298001271       -0.1989517826
 H          2.4364532973       -1.1110711271       -0.6693318333
 C          2.1538167026       -1.3033456220        0.3510912138
 C          0.9325283875       -1.8840256488        0.6506836794
 C          0.6295457150       -2.1505991554        1.9839685641
 C          1.5170328082       -1.8208296951        2.9891103903
 C          2.7198420257       -1.2046012111        2.6892181667
 C          3.0368062732       -0.9469848246        1.3616148652
 N          4.2509456873       -0.3356558920        1.0233975227
 S          4.3779559316        0.6448378761       -0.3210833814
 O          4.4433971380       -0.1604687890       -1.5158195887
 O          5.5493240034        1.4536905083       -0.0521508448
 C          2.9317541132        1.6873601619       -0.3570430321
 C          2.1785197602        1.7612647012       -1.5095244037
 C          1.0810899013        2.6046857782       -1.5414015069
 C          0.7562802991        3.3545100666       -0.4236726435
 C          1.5220237836        3.2690414459        0.7275328908
 C          2.6224933567        2.4299559223        0.7638712258
 H          3.2386525246        2.3470914778        1.6448002781
 H          1.2593390064        3.8475946605        1.5989456134
 H         -0.1046424752        4.0043579643       -0.4489689643
 H          0.4761402155        2.6650151639       -2.4324631812
 H          2.4614768664        1.1540086310       -2.3554062373
 H          4.7921965734        0.0115722562        1.8006897178
 H          3.4069490057       -0.9290080027        3.4745384688
 H          1.2664206210       -2.0320342731        4.0179083292
 H         -0.3202702819       -2.6118469255        2.2201482876
 C         -0.0861568735       -2.2239568569       -0.4087627453
 H         -0.2505046696       -3.3111409117       -0.4026285758
 C          0.3311969340       -1.7973485006       -1.8008230635
 C          1.2418547211       -2.6634541075       -2.6163788555
 C         -0.2046764016       -2.5368807111       -2.9878815590
 H         -0.4640646071       -1.9749859497       -3.8726606297
 H         -0.8587725568       -3.3752014594       -2.7961082720
 H          1.5729686228       -3.5922865026       -2.1767638409
 H          1.9832973546       -2.1890070702       -3.2421452419
 H          0.4366302339       -0.7214652178       -1.8886202729
 O         -0.4525308530        0.5459842906        0.2067975331
