  62
        -98.94038658
 C         -2.1790029873       -0.6931179063        0.2016067997
 C         -3.0079396811       -0.0051591174        1.1236615829
 C         -3.8518344984        1.0616430745        0.5696860678
 C         -3.7457735661        1.3695635469       -0.7355843207
 C         -4.5835308611        2.3913692435       -1.4467878525
 C         -5.8496356012        1.7549990358       -2.0376015182
 C         -6.6244576408        0.8846724002       -1.0480084115
 H         -6.0185095410        0.0135097044       -0.7882883788
 H         -7.5118099316        0.5145688456       -1.5659929154
 C         -7.0477815070        1.6079079571        0.2381629897
 H         -8.0874776078        1.3548855511        0.4560402911
 H         -7.0016427435        2.6872244117        0.0886432107
 C         -6.2301916909        1.2330690251        1.4757865966
 H         -6.1984824212        0.1452296446        1.5786982238
 H         -6.7439503248        1.6288983185        2.3558996671
 C         -4.7910292232        1.7628645911        1.5101142814
 H         -4.3953276114        1.5872220826        2.5150119790
 H         -4.7904305361        2.8390790502        1.3247906321
 H         -5.5597472308        1.1320149238       -2.8868703160
 H         -6.4965340204        2.5528960592       -2.4065366878
 H         -4.8529662904        3.1824700471       -0.7495438680
 H         -3.9902944942        2.8189402096       -2.2567870808
 O         -2.8803194033        0.7449471133       -1.5722502426
 C         -2.0797711612       -0.3046453388       -1.1356209779
 O         -1.3434377655       -0.7758585815       -2.0202609912
 H          0.2260568637        0.2845160187        1.1239154917
 C          0.7626233057       -0.4872180443        0.5836186805
 C          0.1059103254       -1.6731857798        0.2752891800
 C          0.8050988557       -2.6543521486       -0.4137172675
 C          2.1205503100       -2.4433341412       -0.7898387788
 C          2.7646423128       -1.2575661805       -0.4915266791
 C          2.0758710928       -0.2689383026        0.1996504213
 N          2.7199264598        0.9473242498        0.4943714950
 S          4.1884239336        0.8768067740        1.3078374216
 O          4.2711078526       -0.2981422390        2.1446885157
 O          4.3105540357        2.1529946291        1.9787128844
 C          5.4014073393        0.7870529962        0.0081328430
 C          6.2896009246       -0.2698122271       -0.0321280876
 C          7.2324109286       -0.3140177934       -1.0474298903
 C          7.2705535033        0.6944094933       -1.9981388082
 C          6.3730790158        1.7504818861       -1.9417500308
 C          5.4286890844        1.8011880223       -0.9289746315
 H          4.7167370688        2.6055293625       -0.8468286632
 H          6.4059091486        2.5329990857       -2.6826686279
 H          8.0046360062        0.6579620354       -2.7875160364
 H          7.9312760413       -1.1337073261       -1.0928704899
 H          6.2183203425       -1.0333179732        0.7259893980
 H          2.1140103820        1.6301106235        0.9261590674
 H          3.7858616118       -1.0875068078       -0.7909439847
 H          2.6495968521       -3.2129051134       -1.3309834569
 H          0.3155884421       -3.5777622140       -0.6752384973
 C         -1.3221477028       -1.8257699561        0.7368181468
 H         -1.3333062974       -1.6788015874        1.8307707970
 C         -1.8959809941       -3.2125855873        0.4862231501
 C         -3.3690808493       -3.4170279558        0.2996061934
 C         -2.4319306572       -3.6302147447       -0.8491269072
 H         -2.2511012206       -4.6427616247       -1.1791807097
 H         -2.4135691204       -2.9015221894       -1.6439110828
 H         -3.9989719262       -2.5391015155        0.2897749150
 H         -3.8299575381       -4.2786566369        0.7589344740
 H         -1.3781651727       -3.9733473592        1.0625075104
 O         -3.0360046953       -0.2689709507        2.3564149249
