  62
        -98.93624772
 C          1.7790415253        0.1753140981       -0.2929570305
 C          2.9103020504        0.4162565980       -1.1068333267
 C          4.2113020290        0.4265596007       -0.4214840197
 C          4.2513733578        0.2253624301        0.9085731403
 C          5.5010130469        0.1353769132        1.7378966246
 C          6.1642127269       -1.2435564319        1.5462961699
 C          7.5338176440       -1.1957178423        0.8687300618
 H          7.8007043964       -2.2195045025        0.5980412387
 H          8.2743911200       -0.8419297044        1.5891210813
 C          7.6316292753       -0.3093584794       -0.3767050452
 H          8.5571513263       -0.5812072737       -0.8888149830
 H          7.7376442691        0.7344379752       -0.0772740653
 C          6.4684957455       -0.4187360677       -1.3710612975
 H          5.9688787138       -1.3828507513       -1.2747527436
 H          6.8802213494       -0.3739060100       -2.3814353080
 C          5.4252142619        0.7090528599       -1.2630895959
 H          5.0294924884        0.9150735478       -2.2621940891
 H          5.9109569177        1.6226858134       -0.9087678492
 H          5.4885574468       -1.8697356343        0.9600918303
 H          6.2800400355       -1.7293589312        2.5162755827
 H          5.2098353082        0.2756396433        2.7790289323
 H          6.1864902677        0.9320470443        1.4572493128
 O          3.1402411316        0.0021401657        1.6575111214
 C          1.8777249891       -0.0269305420        1.0834108739
 O          0.9507331860       -0.2356041620        1.8873774387
 O          2.8341912682        0.6224624657       -2.3489949461
 C          0.4033643909        0.1545828046       -0.9319828116
 C         -0.4875061324        1.2074273414       -0.3196024377
 C          0.0320782832        2.4748167340       -0.0669774906
 C         -0.7533100527        3.4633895569        0.4917461081
 C         -2.0819117038        3.2176707049        0.7911821982
 C         -2.6162367546        1.9635359465        0.5273740815
 C         -1.8193948896        0.9665926428       -0.0201445297
 H         -2.2547768540        0.0007674047       -0.2149938593
 N         -3.9571863937        1.6790285061        0.8240350277
 S         -4.8764316209        0.7858296710       -0.2508382332
 O         -4.4693155213        1.0123881164       -1.6177802103
 O         -6.2462221458        1.1312911047        0.0671048816
 C         -4.6008574327       -0.9140414090        0.2004164628
 C         -4.4747603243       -1.2460607001        1.5346676909
 C         -4.3097724059       -2.5780432695        1.8793216515
 C         -4.2834567450       -3.5513643440        0.8919588202
 C         -4.4180033286       -3.2023459940       -0.4427921344
 C         -4.5783764108       -1.8710498001       -0.7947150418
 H         -4.6746471460       -1.5541571986       -1.8210412085
 H         -4.3973658418       -3.9603030298       -1.2099072321
 H         -4.1558360682       -4.5873169269        1.1639496601
 H         -4.2012375948       -2.8525263209        2.9162951984
 H         -4.4965524479       -0.4658641242        2.2768997216
 H         -4.4808920988        2.4513563205        1.2093983291
 H         -2.6988644580        3.9897577442        1.2255446589
 H         -0.3311571930        4.4373101140        0.6897038493
 H          1.0673563290        2.6731111536       -0.3094131789
 H          0.5658232244        0.4229697741       -1.9872156020
 C         -0.1812424515       -1.2413729535       -0.8704549691
 C         -1.1230662079       -1.7194303172       -1.9336253787
 C          0.2730966714       -2.2595152019       -1.8715920611
 H          0.4185615708       -3.2773555391       -1.5427469384
 H          0.9826130509       -1.9357291533       -2.6191391766
 H         -1.9357939969       -2.3679189910       -1.6432657468
 H         -1.3714882027       -1.0320180720       -2.7285192769
 H         -0.3456569259       -1.5766566077        0.1476925735
