  62
        -98.93787458
 C         -1.3161576648       -1.3636391136        0.1666160573
 C         -1.5288373128       -0.0182704601        0.5589504845
 C         -2.7257154944        0.6641047389        0.0311531129
 C         -3.5410449572       -0.0147640505       -0.7966362825
 C         -4.8299880701        0.4421225057       -1.4276739473
 C         -6.0016880689        0.4672020372       -0.4342901695
 C         -5.6822248006        1.1005368687        0.9169756970
 H         -6.5608185219        0.9787052849        1.5561584154
 H         -4.8634572219        0.5512691294        1.3850334285
 C         -5.3379819086        2.5875658308        0.8732685043
 H         -5.2512675889        2.9290441697        1.9079846366
 H         -6.1645642732        3.1334300220        0.4130989933
 C         -4.0425808613        2.9539038416        0.1443321051
 H         -3.7910392874        3.9800471516        0.4275062994
 H         -4.1835135868        2.9567082960       -0.9331382911
 C         -2.8410233782        2.0897767987        0.5129988807
 H         -1.9292654045        2.5851070531        0.1615690249
 H         -2.7458160452        2.0513350255        1.6041660174
 H         -6.3151617357       -0.5640294360       -0.2536753486
 H         -6.8357955382        0.9959136458       -0.8990311185
 H         -5.0611560852       -0.2745654633       -2.2188887046
 H         -4.6972431861        1.4151432618       -1.8909811426
 O         -3.2903935224       -1.3040605654       -1.1583166905
 C         -2.1873965991       -2.0085621027       -0.7104489923
 O         -2.1192849574       -3.1666922388       -1.1674980796
 O         -0.7512104056        0.5965182979        1.3371980412
 C         -0.0776218948       -2.0444508521        0.7231705701
 C          1.0606460944       -1.9474687324       -0.2637228539
 C          1.0288228150       -2.6221553220       -1.4801281176
 C          2.0824997985       -2.5081187099       -2.3678497642
 C          3.1793266155       -1.7193773874       -2.0666965994
 C          3.2191874070       -1.0402469681       -0.8544602301
 C          2.1621159077       -1.1597492126        0.0377575204
 H          2.2043706273       -0.6314514245        0.9781075531
 N          4.3250647356       -0.2512487397       -0.5186422137
 S          4.2082327820        1.0403760610        0.5254566911
 O          5.3986152194        1.8181603595        0.2513016049
 O          4.0690862760        0.5740595155        1.8824936191
 C          2.7714027539        1.9785135816        0.0376398543
 C          1.9348647882        2.4798675512        1.0124517387
 C          0.8594987768        3.2676044956        0.6361057595
 C          0.6374807340        3.5334181748       -0.7053154047
 C          1.4833327027        3.0170162176       -1.6749898577
 C          2.5652196433        2.2366754107       -1.3031151152
 H          3.2429481377        1.8327071441       -2.0374982491
 H          1.3030550366        3.2221887738       -2.7181901379
 H         -0.1998345143        4.1476930370       -0.9994543316
 H          0.1976908734        3.6590272603        1.3915729086
 H          2.1300384902        2.2383632138        2.0447386741
 H          5.0032333845       -0.1068960948       -1.2509059000
 H          4.0011865017       -1.6329421893       -2.7608350580
 H          2.0484862257       -3.0366638149       -3.3085217026
 H          0.1662446750       -3.2220955279       -1.7258833834
 H          0.2039478796       -1.4540277851        1.6061042396
 C         -0.3034488788       -3.4778836785        1.1600884717
 C          0.6823199388       -4.1071124920        2.0968091706
 C         -0.6938634203       -3.7601043413        2.5782882727
 H         -1.3920391662       -4.5609725126        2.7703704993
 H         -0.8020161464       -2.9175443538        3.2459760585
 H          0.9321730981       -5.1478568221        1.9591414011
 H          1.5073956290       -3.4982963661        2.4363271216
 H         -0.7396162478       -4.1030899715        0.3926039066
