  62
        -98.94659451
 C         -2.5007504641       -0.3320760857       -0.0119690000
 C         -2.3309738268       -1.4790909449       -0.8208703655
 C         -1.6534866832       -2.6139539559       -0.1870345771
 C         -1.2443006947       -2.5156068342        1.0910735943
 C         -0.5078503858       -3.5744895901        1.8657527252
 C          1.0054017981       -3.5705670617        1.6055090174
 C          1.4337706679       -4.1573550355        0.2593187832
 H          2.5112485482       -4.3253053611        0.3134347120
 H          0.9572087420       -5.1283314508        0.1168831826
 C          1.1390792601       -3.2503342645       -0.9432670284
 H          0.9735088282       -2.2302416857       -0.5889268716
 H          2.0126877155       -3.2273752479       -1.5996263439
 C         -0.0515278204       -3.6876983151       -1.7970033006
 H          0.1709649051       -4.6459620631       -2.2728302211
 H         -0.1980210158       -2.9449764242       -2.5854878056
 C         -1.3710629506       -3.8237242297       -1.0272699070
 H         -2.1820079950       -3.9165816583       -1.7544036381
 H         -1.3536751628       -4.7191355750       -0.4062976176
 H          1.3650941567       -2.5407516238        1.6819620256
 H          1.4766876745       -4.1523806393        2.4015565235
 H         -0.6777939665       -3.3612871420        2.9233794492
 H         -0.9197911125       -4.5582047131        1.6372580153
 O         -1.4740442289       -1.4139545700        1.8534570502
 C         -2.0641141758       -0.2845224384        1.3125974760
 O         -2.1667428077        0.6739995593        2.1052801581
 O         -2.7183329318       -1.5457639906       -2.0201045975
 C         -3.0791018519        0.9285865624       -0.6283779779
 C         -2.0813447582        2.0531443355       -0.4868293802
 C         -2.4388061646        3.3622025759       -0.1917992600
 C         -1.4649601923        4.3306140291       -0.0155827925
 C         -0.1227440987        4.0087921562       -0.0956034498
 C          0.2445147184        2.7047478409       -0.4064223971
 C         -0.7335329514        1.7552022322       -0.6440310342
 H         -0.4377323358        0.7483471568       -0.8962937532
 N          1.6029426740        2.3190106935       -0.4865961670
 S          2.1013583742        1.0944903365        0.5750158727
 O          1.2865544847       -0.0770694098        0.4033701424
 O          2.1925536140        1.6352854168        1.9168400635
 C          3.7402746000        0.7869725765       -0.0551372491
 C          3.8894582355       -0.1074022829       -1.0969947694
 C          5.1558924555       -0.3295358863       -1.6138722376
 C          6.2457350992        0.3459565844       -1.0851880429
 C          6.0806454983        1.2404791030       -0.0386017388
 C          4.8164738590        1.4659646348        0.4830462109
 H          4.6435271586        2.1411085860        1.3055826008
 H          6.9301566921        1.7613953096        0.3727024026
 H          7.2302128560        0.1712589249       -1.4895163991
 H          5.2870980443       -1.0271895899       -2.4252453835
 H          3.0144157774       -0.6142128812       -1.4702616252
 H          2.2167077964        3.1113285067       -0.3364691592
 H          0.6358124228        4.7557994742        0.0866250476
 H         -1.7557269107        5.3442945896        0.2158315529
 H         -3.4794262450        3.6225044715       -0.0847979887
 H         -3.2100531032        0.7023880234       -1.6976042801
 C         -4.4319149728        1.2516145316       -0.0287723802
 C         -5.4862852763        1.9297491230       -0.8507331296
 C         -5.6303658131        0.4817871935       -0.4941101422
 H         -6.3752841050        0.1982965052        0.2340811468
 H         -5.4717861684       -0.2560756852       -1.2669023959
 H         -6.1379756385        2.6415052291       -0.3666574696
 H         -5.2420057751        2.1760668420       -1.8729605961
 H         -4.3678610960        1.4910724916        1.0271478270
