  62
        -98.93798649
 C          2.0246485878        1.0170270754       -0.3505768202
 C          2.7232978521        0.5476389920        0.7918825878
 C          3.2176687896       -0.8326807814        0.7437278562
 C          2.9516171832       -1.5814672603       -0.3416011845
 C          3.4134518048       -2.9955143255       -0.5431726783
 C          4.7703282132       -3.0427981702       -1.2593503863
 C          5.8231567438       -2.1196425106       -0.6459063779
 H          6.7464803433       -2.2575293140       -1.2125931772
 H          5.5105650385       -1.0824385363       -0.7866289717
 C          6.0946230824       -2.3686540251        0.8442989754
 H          5.7246581176       -3.3543735416        1.1281922521
 H          7.1741674420       -2.3669702763        1.0083554110
 C          5.4999795629       -1.3157184559        1.7813797834
 H          5.7904706267       -0.3181693570        1.4427443339
 H          5.9309533912       -1.4628129166        2.7751745852
 C          3.9741672792       -1.3451852187        1.9372010281
 H          3.6491145792       -2.3560164267        2.1925313046
 H          3.7102390267       -0.6797466848        2.7644030310
 H          5.1324107154       -4.0724196457       -1.2449429105
 H          4.6210662368       -2.7488337564       -2.3009062745
 H          3.4833132177       -3.4883091817        0.4247805181
 H          2.6696654322       -3.5135413409       -1.1512676528
 O          2.2646411390       -1.1097367834       -1.4106629883
 C          1.7761950816        0.1940898030       -1.4505135042
 O          1.1805065011        0.4620801593       -2.5097009506
 H         -0.5443939572        0.6368187688       -0.2592898462
 C         -0.7154184744        1.4355861927        0.4474884279
 C          0.2276803360        2.4431345314        0.5896724509
 C         -0.0088433750        3.4560725825        1.5116503887
 C         -1.1724084553        3.4655981979        2.2602453504
 C         -2.1167158245        2.4676746554        2.1055021138
 C         -1.8796003851        1.4371227946        1.2009998196
 N         -2.7944590149        0.3806354731        1.0739361669
 S         -2.8607185474       -0.5084324640       -0.3572650592
 O         -1.7674743818       -1.4479334519       -0.3700964294
 O         -2.9793876258        0.3825195203       -1.4892123914
 C         -4.3962822630       -1.3782261622       -0.1015389368
 C         -5.5584043365       -0.8846836859       -0.6637149875
 C         -6.7514289031       -1.5514371653       -0.4320987393
 C         -6.7626531993       -2.6923953521        0.3560044647
 C         -5.5880664922       -3.1769017328        0.9124587953
 C         -4.3918833222       -2.5156082170        0.6837225683
 H         -3.4526960208       -2.8583501731        1.0860084460
 H         -5.5995874184       -4.0660767243        1.5218909259
 H         -7.6919790656       -3.2094992217        0.5350903852
 H         -7.6651734255       -1.1793166867       -0.8665504333
 H         -5.4985417816        0.0000964892       -1.2769099768
 H         -3.7136038361        0.5997072757        1.4323384133
 H         -3.0239626473        2.4730072578        2.6897119028
 H         -1.3469622292        4.2588137968        2.9710942122
 H          0.7328294607        4.2290179258        1.6492027516
 C          1.4830065945        2.4321051895       -0.2482331746
 H          2.2476521421        2.9989577494        0.3091038485
 C          1.2872695043        3.1289241796       -1.5852847696
 C         -0.0428532827        3.2377483966       -2.2618439220
 C          0.5900729561        4.4553619134       -1.6620364817
 H          0.9897027363        5.2067950271       -2.3259622480
 H          0.1548104653        4.8478048620       -0.7558987907
 H         -0.9005497714        2.7980965488       -1.7745593121
 H         -0.0658844282        3.1299742742       -3.3354889964
 H          2.1426977878        2.9899044689       -2.2384936627
 O          2.9263560933        1.2646437277        1.8095577136
