  62
        -98.94433176
 C         -1.8037027473       -0.9710416272        0.2920354647
 C         -2.0208323729        0.3462828333       -0.1801845309
 C         -3.2990735938        0.9614346978        0.2028431052
 C         -4.1562640449        0.3010021388        1.0007842540
 C         -5.4806038458        0.8114621038        1.4993643637
 C         -6.6370748591        0.6153012725        0.5093406547
 C         -6.6128057275        1.5365192553       -0.7111099632
 H         -7.5843173552        1.4443034449       -1.2008097584
 H         -6.5118865362        2.5712338402       -0.3818226101
 C         -5.5132762011        1.2085378691       -1.7308432743
 H         -5.1397429495        0.1978862955       -1.5509203673
 H         -5.9362664781        1.2186274178       -2.7378980782
 C         -4.3334174626        2.1804950993       -1.7255979511
 H         -4.6736802899        3.1714885895       -2.0343777566
 H         -3.6001384394        1.8327379013       -2.4575576396
 C         -3.6265105541        2.3078163447       -0.3698778469
 H         -2.6865408915        2.8441310425       -0.5217065390
 H         -4.2439930553        2.8770616193        0.3245943812
 H         -6.6416590604       -0.4262623264        0.1797409211
 H         -7.5663687811        0.7948353869        1.0548896384
 H         -5.7069464208        0.2503586028        2.4086728982
 H         -5.3945529923        1.8677556245        1.7561599892
 O         -3.8928856681       -0.9447864766        1.4749691451
 C         -2.7376015679       -1.6143270614        1.1128172256
 O         -2.6516205022       -2.7672491914        1.5808987164
 H          0.5972307219        0.6249780841        0.2154457494
 C          1.1033894297       -0.1286082028        0.8005369693
 C          0.6200104687       -1.4290996121        0.7969369926
 C          1.2869633456       -2.3860368196        1.5522037282
 C          2.4096738498       -2.0483387798        2.2886586889
 C          2.8881994907       -0.7501200132        2.2894758687
 C          2.2214248063        0.2135314734        1.5452713052
 N          2.7107335992        1.5406276992        1.5238088070
 S          4.2011058776        1.7046496343        0.7714411670
 O          5.2216104600        1.1640912919        1.6333278097
 O          4.3247583025        3.1054253821        0.4369998954
 C          4.0558102727        0.7133426556       -0.7038408410
 C          3.3748854437        1.2413283447       -1.7823826312
 C          3.1856817375        0.4539352264       -2.9060947830
 C          3.6704187738       -0.8447058186       -2.9262269020
 C          4.3443959558       -1.3632860929       -1.8316141854
 C          4.5387619660       -0.5794659832       -0.7059464276
 H          5.0588617077       -0.9421360335        0.1653045168
 H          4.7146022728       -2.3755318661       -1.8498645066
 H          3.5245876334       -1.4547777357       -3.8040897503
 H          2.6561687007        0.8530799276       -3.7564872213
 H          3.0156155830        2.2569652921       -1.7306237468
 H          2.0559584917        2.1804239635        1.0943927146
 H          3.7685577249       -0.4694382431        2.8448858710
 H          2.9173759806       -2.8036082791        2.8689562607
 H          0.9149133652       -3.4000126502        1.5664249404
 C         -0.5735478704       -1.7977604318       -0.0504085898
 H         -0.8437112460       -2.8356412146        0.1850236464
 C         -0.2001033415       -1.7208082674       -1.5196932321
 C          0.5715061325       -2.8480816753       -2.1326645014
 C         -0.8679315852       -2.6403254346       -2.4950173716
 H         -1.1072665629       -2.2627883286       -3.4777142250
 H         -1.5986507886       -3.3351298627       -2.1061944871
 H          1.3257004993       -2.6123790655       -2.8664371597
 H          0.8175312429       -3.6878766051       -1.5010100193
 H          0.0230805405       -0.7159853811       -1.8530729744
 O         -1.2056935192        1.0042472192       -0.8820940790
