  62
        -98.92997262
 C          2.2619863229        0.6038222981        0.8575484995
 C          3.4309726881        1.0067848217        0.1684496634
 C          4.5845674938        0.0854826722        0.2354683353
 C          4.4728467434       -1.0789445320        0.8990386416
 C          5.4759998775       -2.1848703858        1.1541917308
 C          6.7779384716       -2.2584829572        0.3603760173
 C          6.6054247250       -2.5756637883       -1.1246554875
 H          7.5839766565       -2.5043986648       -1.6044661029
 H          6.2617900427       -3.6086869272       -1.2212594366
 C          5.6167643555       -1.6895885488       -1.8784801747
 H          4.6130465267       -1.8306580395       -1.4717105619
 H          5.5918701940       -2.0269781147       -2.9182578534
 C          5.9462612577       -0.1982127257       -1.8818865910
 H          5.2597882236        0.2884200941       -2.5797594198
 H          6.9621391489       -0.0468476265       -2.2517761912
 C          5.8066775572        0.5140389086       -0.5254148948
 H          6.6994008766        0.3883182596        0.0821725964
 H          5.6874268866        1.5841303379       -0.7181347937
 H          7.3659265714       -3.0667215048        0.8037876035
 H          7.3507458139       -1.3451894372        0.4910193498
 H          4.9233135687       -3.1208445341        1.0240514911
 H          5.7232486080       -2.1205059869        2.2197076675
 O          3.3179960849       -1.4300940253        1.5407654395
 C          2.2038975525       -0.6130272140        1.5387626967
 O          1.2346594280       -1.0717662762        2.1790919322
 O          3.5361736946        2.0815617891       -0.4744551986
 C          0.9921908105        1.4368296632        0.9056220036
 C          0.1001362021        1.1354020609       -0.2717592273
 C          0.5923126063        1.1418440700       -1.5733923083
 C         -0.2443241233        0.8606397627       -2.6376052930
 C         -1.5800609990        0.5680793087       -2.4264095645
 C         -2.0843430750        0.5667832385       -1.1306464854
 C         -1.2412513693        0.8483937469       -0.0642388785
 H         -1.6370955551        0.8212843717        0.9397612965
 N         -3.4502468307        0.3241682475       -0.9033814359
 S         -3.9373094053       -0.4935002243        0.4911361052
 O         -3.8376380801        0.4038932897        1.6142818757
 O         -3.2373331385       -1.7539031135        0.6019857281
 C         -5.6550207506       -0.7684864943        0.0995505256
 C         -6.0694414494       -2.0158514421       -0.3265718515
 C         -7.4046800449       -2.2049691081       -0.6479413454
 C         -8.2966321464       -1.1486388950       -0.5411725338
 C         -7.8657340404        0.0978607858       -0.1112034984
 C         -6.5329102117        0.2932449320        0.2134016299
 H         -6.1542074409        1.2400763465        0.5610542270
 H         -8.5627867311        0.9158771503       -0.0267737212
 H         -9.3348684899       -1.2985999954       -0.7917500238
 H         -7.7430434481       -3.1736389675       -0.9787986345
 H         -5.3413353529       -2.8089163435       -0.3863658598
 H         -3.9135771274       -0.0551667363       -1.7186462978
 H         -2.2300303542        0.3454649446       -3.2590467721
 H          0.1489362342        0.8651714183       -3.6431139465
 H          1.6329352073        1.3747391560       -1.7394618362
 H          0.4606382089        1.0969766022        1.8099672417
 C          1.2607090060        2.9270750338        1.0748516575
 C          0.9814492843        3.9450247637        0.0145208943
 C          0.1080859067        3.8751601190        1.2285416257
 H          0.1779872934        4.6590745673        1.9674866542
 H         -0.8852067506        3.4668635948        1.1106161180
 H          1.6752327061        4.7659486765       -0.0816672104
 H          0.5764592846        3.6050829545       -0.9252563258
 H          2.1276666666        3.1110388503        1.7011856268
