  62
        -98.93915425
 C          1.9116331470        0.7960498283        0.6977964370
 C          2.0915545696        0.2243405819       -0.5857440313
 C          2.5635134703       -1.1689134351       -0.6057611089
 C          2.7165045589       -1.8340065117        0.5526473377
 C          3.2370162295       -3.2361777717        0.6772249655
 C          4.7625062746       -3.2490609694        0.8507972554
 C          5.5077346000       -2.3900962949       -0.1709462302
 H          5.2552101214       -1.3402738853       -0.0050075363
 H          6.5755783363       -2.4992893700        0.0300424126
 C          5.2220899030       -2.7536885634       -1.6346753394
 H          4.7896576221       -3.7532492924       -1.6899795743
 H          6.1677542357       -2.7778907469       -2.1800565772
 C          4.3109000808       -1.7667549920       -2.3668744082
 H          4.6918453154       -0.7508263353       -2.2359259579
 H          4.3498122806       -1.9959433461       -3.4349821979
 C          2.8346786458       -1.7851257254       -1.9495436058
 H          2.2751639472       -1.1823680709       -2.6710601124
 H          2.4522032555       -2.8071979018       -1.9877455765
 H          5.1083877040       -4.2820025313        0.7825206564
 H          4.9993928189       -2.8763045320        1.8500937371
 H          2.7743360945       -3.6967089182        1.5518916011
 H          2.9554090914       -3.8014584088       -0.2090910879
 O          2.4550493971       -1.2777448825        1.7641195900
 C          2.0484172510        0.0420691699        1.8648967601
 O          1.8402126039        0.4239703191        3.0357131464
 H         -0.7178732757        0.6983455098        0.6263497433
 C         -0.7894019999        1.5636388145       -0.0186531254
 C          0.2535673795        2.4823058184       -0.0448405002
 C          0.1452405445        3.5861509438       -0.8794175601
 C         -0.9815539452        3.7581127629       -1.6654434023
 C         -2.0158244776        2.8425229690       -1.6363865921
 C         -1.9102836990        1.7245447870       -0.8138518200
 N         -2.9190987327        0.7470263699       -0.8085914297
 S         -3.1026392389       -0.2721698927        0.5165599667
 O         -3.1678740476        0.4976339058        1.7400141588
 O         -2.0953815665       -1.3033799286        0.4591998792
 C         -4.7020307025       -0.9709445441        0.1513079923
 C         -4.7813471278       -2.0104169150       -0.7562194930
 C         -6.0256324541       -2.5365765454       -1.0652060184
 C         -7.1637311162       -2.0173575966       -0.4658053043
 C         -7.0684958546       -0.9755797402        0.4444804460
 C         -5.8270474245       -0.4441595157        0.7572346223
 H         -5.7022207365        0.3592346610        1.4652674290
 H         -7.9542734340       -0.5762332407        0.9114547285
 H         -8.1305898592       -2.4294775947       -0.7076836308
 H         -6.1028762925       -3.3483934455       -1.7703034408
 H         -3.8684021773       -2.3858321949       -1.1887093135
 H         -3.8030407359        1.0776408974       -1.1692724128
 H         -2.8906247903        2.9780691413       -2.2536127448
 H         -1.0540076876        4.6203159517       -2.3110132461
 H          0.9476644888        4.3034901644       -0.9294576406
 C          1.4278992179        2.2252917645        0.8692735750
 H          1.0479188166        2.2701015492        1.9049151560
 C          2.5252036820        3.2749228420        0.7645605832
 C          3.9619904099        2.9185814012        1.0015627717
 C          3.5012232320        3.2981575827       -0.3719014987
 H          3.8061320055        4.2568820036       -0.7653186861
 H          3.4094537530        2.5259582218       -1.1186237723
 H          4.1934474534        1.8812757804        1.1977751856
 H          4.5773526229        3.6140533932        1.5525834258
 H          2.2040752529        4.2369202176        1.1521384623
 O          1.8795175628        0.8352833107       -1.6651404974
