  62
        -98.93563719
 C         -2.0083462908       -1.2055050869       -0.0847044069
 C         -2.4919791944        0.0225334220       -0.5893654565
 C         -3.8767086226        0.3849255358       -0.2256514738
 C         -4.5802090581       -0.4351019293        0.5753807194
 C         -5.9955064500       -0.2869524473        1.0742908752
 C         -6.4120828074        1.1067734867        1.5687861497
 C         -7.4027244069        1.8108354369        0.6398711101
 H         -8.1172690390        1.0724841308        0.2700185155
 H         -7.9650765330        2.5452714065        1.2208378684
 C         -6.7746303975        2.5429441828       -0.5448322895
 H         -6.2608974261        3.4374518587       -0.1857770003
 H         -7.5865938011        2.8746695914       -1.1963503298
 C         -5.7863705726        1.7198034672       -1.3735116653
 H         -6.1545201987        0.7032622286       -1.5076524325
 H         -5.7271659643        2.1706849668       -2.3665080608
 C         -4.3664206214        1.6915133306       -0.7878836151
 H         -3.6416607762        1.9445240641       -1.5681884340
 H         -4.2622841194        2.4660637578       -0.0224419004
 H         -6.8922270626        0.9847441287        2.5410991460
 H         -5.5293313556        1.7258448648        1.7213747603
 H         -6.0851989497       -1.0107144071        1.8875826742
 H         -6.6764881791       -0.6192056650        0.2867007208
 O         -4.0642239446       -1.6049852299        1.0511005463
 C         -2.7834781046       -2.0190936819        0.7411024639
 O         -2.4535980961       -3.1074437132        1.2535014697
 O         -1.8096149061        0.7866065266       -1.3219768024
 C         -0.5988604362       -1.6739127893       -0.4060717015
 C          0.3884123791       -0.6921719391        0.1761435562
 C          0.4532853568       -0.5604849083        1.5612297350
 C          1.3213040578        0.3405600532        2.1469295888
 C          2.1442599241        1.1320609817        1.3641872929
 C          2.0901363212        1.0053458003       -0.0167909255
 C          1.2248574431        0.0893758445       -0.6036039329
 H          1.1903106540        0.0105744083       -1.6784222060
 N          2.9270337028        1.8010605047       -0.8159204854
 S          4.5356191003        1.9398265755       -0.3824820866
 O          4.6742739762        2.8959260160        0.6875769162
 O          5.2324729204        2.2581688745       -1.6086969375
 C          4.9930477133        0.3141848099        0.1936411410
 C          5.3399825561        0.1199103825        1.5147614466
 C          5.6486315888       -1.1607801119        1.9452049240
 C          5.6015865340       -2.2196490109        1.0521907506
 C          5.2549906528       -2.0075707452       -0.2736435009
 C          4.9454473135       -0.7297655828       -0.7092086298
 H          4.6786635455       -0.5294542684       -1.7343531788
 H          5.2215274476       -2.8327501220       -0.9668243603
 H          5.8376179581       -3.2164853472        1.3899290315
 H          5.9207506664       -1.3284984296        2.9748192088
 H          5.3642880626        0.9703894643        2.1763045170
 H          2.8176684512        1.6494784533       -1.8074055377
 H          2.8151956730        1.8533313331        1.8016522426
 H          1.3563255323        0.4328973505        3.2218607768
 H         -0.1965485458       -1.1734636662        2.1711803669
 H         -0.4749841830       -2.6300650341        0.1209893517
 C         -0.4342190216       -1.9125716195       -1.8917671082
 C          0.6689350971       -2.8001055699       -2.3825986913
 C         -0.7541244988       -3.2652770221       -2.4498504201
 H         -1.2345957482       -3.3233314317       -3.4150772260
 H         -1.0794357945       -4.0260726473       -1.7552860849
 H          1.1676097716       -2.5445285408       -3.3053280678
 H          1.3120069155       -3.2491465910       -1.6411840803
 H         -0.7070448437       -1.0523683463       -2.4915767136
