  62
        -98.94116596
 C         -1.9540678677       -0.9075690038       -0.2131509438
 C         -2.5596355223       -0.3032007817        0.9192284625
 C         -2.8745584016        1.1255838306        0.8161551375
 C         -2.5381767339        1.7877101696       -0.3052094420
 C         -2.8265266769        3.2376811467       -0.5656091023
 C         -4.1808553068        3.4205562583       -1.2651439625
 C         -5.3271690080        2.6601786643       -0.5982587048
 H         -6.2363921916        2.8851789568       -1.1597939743
 H         -5.1452468185        1.5875031663       -0.6958738324
 C         -5.5409210966        3.0050537880        0.8821779738
 H         -5.0499593634        3.9501289675        1.1164926806
 H         -6.6098242795        3.1411696657        1.0589793461
 C         -5.0612624517        1.9300474231        1.8591930143
 H         -5.4531165931        2.1722281773        2.8505475440
 H         -5.4761578726        0.9612241580        1.5704479459
 C         -3.5404311798        1.7802835742        1.9940193229
 H         -3.0897536099        2.7540955697        2.1969170698
 H         -3.3436671560        1.1262493011        2.8485525570
 H         -4.4142763589        4.4864967951       -1.2912600153
 H         -4.0877434217        3.0668613830       -2.2945341948
 H         -2.8164614869        3.7774215959        0.3795195506
 H         -2.0362842724        3.6327532188       -1.2066293419
 O         -1.9352016847        1.1877456847       -1.3607259023
 C         -1.6243791383       -0.1664061135       -1.3486333991
 O         -1.0842543793       -0.5550604789       -2.4036234866
 O         -2.8331006181       -0.9421559961        1.9720671774
 C         -1.6127813535       -2.3809436067       -0.0746097309
 C         -0.2323721201       -2.5448332164        0.5189709133
 C         -0.0169235605       -3.4035581569        1.5907072390
 C          1.2419954730       -3.5308434211        2.1496493964
 C          2.3025384426       -2.7868703455        1.6662584077
 C          2.0979880297       -1.9292949346        0.5908227181
 C          0.8421928711       -1.8297779727        0.0107406311
 H          0.7066996837       -1.1635944259       -0.8283100110
 N          3.1499098104       -1.1588195569        0.0718358630
 S          2.7993722321        0.4165826927       -0.4343809989
 O          1.7831013434        0.9952446871        0.4157453637
 O          2.5357851044        0.4020175197       -1.8507550963
 C          4.3727258369        1.2046888114       -0.1348295699
 C          4.5871995179        1.8420581995        1.0727170389
 C          5.8230946218        2.4207264678        1.3157162408
 C          6.8196288754        2.3494746937        0.3538301352
 C          6.5895864069        1.7069082213       -0.8536483184
 C          5.3557970462        1.1268965847       -1.1032770564
 H          5.1260264555        0.6248962758       -2.0287274196
 H          7.3651798384        1.6560635267       -1.6005645265
 H          7.7804772944        2.8002142802        0.5454294097
 H          6.0028886265        2.9237140305        2.2521497145
 H          3.7791761863        1.8795953342        1.7858201175
 H          3.9854961774       -1.1941378843        0.6399169980
 H          3.2808278377       -2.8657782155        2.1154795641
 H          1.3948225104       -4.2000799476        2.9825082996
 H         -0.8495422773       -3.9571200748        1.9984391170
 H         -2.3330050522       -2.7800020890        0.6540133717
 C         -1.7310970361       -3.1858391594       -1.3530656121
 C         -1.9828099565       -4.6604627762       -1.2657948455
 C         -3.0630380736       -3.7429987558       -1.7528041147
 H         -3.3209183023       -3.7514305814       -2.8009446977
 H         -3.9009150966       -3.5491934818       -1.0988953476
 H         -1.4957019276       -5.3060822359       -1.9800009691
 H         -2.0931501315       -5.0936669517       -0.2834928705
 H         -1.0829467631       -2.8298003325       -2.1432745342
