  62
        -98.94314344
 C         -0.2383529816       -2.1994130611       -0.5723875005
 C         -0.9134193033       -1.1284413204       -1.2103629820
 C         -2.3487629394       -1.0154220674       -0.9064786494
 C         -2.9053865472       -1.8013612128        0.0305236801
 C         -4.3478874012       -1.7917554237        0.4590710329
 C         -4.6875167794       -0.6936693457        1.4758023409
 C         -4.7682974741        0.7225112611        0.9046225977
 H         -5.4137185063        0.7229687353        0.0253216947
 H         -5.2485875764        1.3442415458        1.6630913104
 C         -3.4116026086        1.3468355231        0.5496004257
 H         -2.6076588961        0.8161822245        1.0664144376
 H         -3.3848113245        2.3777394346        0.9129409134
 C         -3.0982978915        1.3872955697       -0.9457668888
 H         -3.8006465525        2.0558140272       -1.4495943675
 H         -2.0916996888        1.7932500979       -1.0683105960
 C         -3.1403610086        0.0236208927       -1.6433640233
 H         -4.1724701674       -0.3071532952       -1.7613032740
 H         -2.6923431199        0.1380397757       -2.6338007848
 H         -3.9455320233       -0.7179068352        2.2778261507
 H         -5.6582938798       -0.9420829120        1.9117509590
 H         -4.9913866512       -1.6912454050       -0.4157592933
 H         -4.5397484669       -2.7621582196        0.9221797749
 O         -2.1942007497       -2.7429766922        0.7073893541
 C         -0.8629069041       -2.9738795391        0.4079943956
 O         -0.3439523458       -3.8973915623        1.0699751022
 H          1.1145080104        0.0125077882       -0.0255079006
 C          1.8910161974       -0.5280272737        0.4915124890
 C          2.0951661653       -1.8691135651        0.1995139765
 C          3.0945755879       -2.5583777967        0.8749548631
 C          3.8621510262       -1.9181362041        1.8322822975
 C          3.6372003075       -0.5890689583        2.1418764301
 C          2.6398612107        0.1090243811        1.4689469313
 N          2.3969647505        1.4619780843        1.7427552212
 S          0.8632254075        2.1152214972        1.5982781463
 O          0.8539634953        3.2320770966        2.5220710462
 O         -0.1649423376        1.1233946236        1.8142512104
 C          0.7849211654        2.7723893495       -0.0562306150
 C          1.7876339015        2.5467586654       -0.9757379387
 C          1.6699334413        3.0973721918       -2.2424912352
 C          0.5644792504        3.8668347463       -2.5659602622
 C         -0.4286576749        4.0970124189       -1.6270047854
 C         -0.3189293387        3.5446647924       -0.3611042597
 H         -1.0675501594        3.6978372841        0.4003980240
 H         -1.2895702697        4.6963773804       -1.8765248809
 H          0.4756710319        4.2894891991       -3.5542785962
 H          2.4427796221        2.9183409364       -2.9726121434
 H          2.6411245228        1.9479726512       -0.7047016984
 H          2.8990301886        1.8459389412        2.5290237824
 H          4.2216292025       -0.0942524240        2.9024641307
 H          4.6336091777       -2.4632189125        2.3547015396
 H          3.2518223214       -3.6057864358        0.6634460940
 C          1.2211019007       -2.5487438679       -0.8221344322
 H          1.2956724468       -3.6344099763       -0.6451317783
 C          1.6680479549       -2.2901823223       -2.2537575169
 C          2.5717107241       -1.1635088078       -2.6436337661
 C          3.0854418114       -2.5698469799       -2.6586552495
 H          3.2653082185       -3.0480333725       -3.6095037619
 H          3.7771213007       -2.8564097480       -1.8808711615
 H          2.3726046144       -0.6672179115       -3.5805327556
 H          2.9204575068       -0.5023775311       -1.8664508850
 H          0.8966631598       -2.5557419278       -2.9688498148
 O         -0.3797598479       -0.3140432486       -2.0050064669
