  62
        -98.94370050
 C          1.7117794651        0.5118860992       -0.3088323694
 C          2.9396204368        1.0056460809       -0.8100512928
 C          4.1262284139        0.7050945645       -0.0012819482
 C          3.9921892543        0.0273329712        1.1534660801
 C          5.1037379499       -0.3325301036        2.1018120276
 C          5.8578762843       -1.6143310366        1.7222305153
 C          6.7820919118       -1.4908817188        0.5101860706
 H          7.4461010707       -0.6366786563        0.6464205790
 H          7.4052045506       -2.3872598225        0.4898771388
 C          6.0509237551       -1.3680493341       -0.8339908860
 H          6.5127708422       -2.0383153758       -1.5624325454
 H          5.0137656487       -1.6898575161       -0.7156112524
 C          6.0661788560        0.0361211717       -1.4381576638
 H          5.4907474536        0.0155538251       -2.3672193999
 H          7.0922207443        0.3187004134       -1.6842369531
 C          5.4650903947        1.1194231588       -0.5329421074
 H          6.1472858112        1.3465072054        0.2860740939
 H          5.3206600744        2.0236398958       -1.1295333144
 H          6.4626766441       -1.9036773296        2.5847493909
 H          5.1291520082       -2.4086744107        1.5455758490
 H          5.8075625809        0.4970723473        2.1742861307
 H          4.6407047070       -0.4823709288        3.0794757572
 O          2.7888594072       -0.4048067495        1.6150998366
 C          1.6229264329       -0.1908934151        0.8929760832
 O          0.5992420922       -0.6628361958        1.4209435892
 H         -2.1912993493        0.2057639151       -0.4835165678
 C         -1.8371022773        1.1167598374       -0.0338121215
 C         -0.5384495096        1.5436610647       -0.2562006156
 C         -0.1180181869        2.7363180020        0.3283407691
 C         -0.9737463691        3.4714319584        1.1242593278
 C         -2.2678781710        3.0362497594        1.3521493397
 C         -2.6996365770        1.8507626036        0.7702175393
 N         -3.9890754679        1.3686423921        1.0172057396
 S         -4.8066157695        0.3976504929       -0.0612044655
 O         -4.6224740059        0.8347849477       -1.4255725651
 O         -6.1713661744        0.4034938776        0.4215311711
 C         -4.1119979179       -1.2258144565        0.1638793467
 C         -3.8275705116       -1.6627432840        1.4418085535
 C         -3.3003760282       -2.9326146724        1.6118229803
 C         -3.0714053374       -3.7407367771        0.5089169583
 C         -3.3696922797       -3.2902665693       -0.7677121083
 C         -3.8974363864       -2.0213789904       -0.9440424792
 H         -4.1369051432       -1.6255696394       -1.9185985109
 H         -3.1897892781       -3.9206195485       -1.6241890387
 H         -2.6551599549       -4.7265622306        0.6448867016
 H         -3.0626236777       -3.2852159455        2.6024888194
 H         -4.0093345195       -1.0075051473        2.2772138254
 H         -4.5961998774        1.9743560964        1.5475202773
 H         -2.9355800076        3.6061795808        1.9800363704
 H         -0.6331851663        4.3929217608        1.5723124873
 H          0.8940777314        3.0750148444        0.1527072066
 C          0.4401604451        0.7644738405       -1.0985378989
 H          0.7426579545        1.3983299815       -1.9455278749
 C         -0.1145048317       -0.5370149720       -1.6377535407
 C         -0.9585386136       -0.5395809197       -2.8757509082
 C          0.4368230480       -1.0837976260       -2.9191364749
 H          0.5718944757       -2.1510864853       -3.0086378528
 H          1.1984636400       -0.5036423881       -3.4195344419
 H         -1.7826922426       -1.2336794410       -2.9353130958
 H         -1.1531601611        0.4103367786       -3.3504340253
 H         -0.3542854611       -1.2465483839       -0.8531779355
 O          3.0377861164        1.6712798525       -1.8761330385
