  62
        -98.94535886
 C         -1.5215333909       -1.4773335415       -0.3404435532
 C         -2.7789297871       -1.3807095413        0.3096709461
 C         -3.6800589709       -0.3271332985       -0.1730084467
 C         -3.2875141512        0.4559258693       -1.1941368954
 C         -4.0749265469        1.6089025964       -1.7445150631
 C         -3.7025238563        2.9218754751       -1.0410314479
 C         -3.6938968475        2.8237888936        0.4845961547
 H         -2.8968103401        2.1446697605        0.7964617382
 H         -3.4440373552        3.8133667986        0.8728488059
 C         -5.0234565013        2.3579474705        1.0949238273
 H         -5.8281461617        2.4830911872        0.3694486596
 H         -5.2575422387        2.9944684318        1.9507883200
 C         -5.0205696720        0.9147378947        1.6027966546
 H         -4.1609830358        0.7592237932        2.2595746146
 H         -5.9220423784        0.7640863035        2.2026579010
 C         -5.0035294764       -0.1739305928        0.5218867626
 H         -5.1990656810       -1.1323402560        1.0115132552
 H         -5.8007419920        0.0109061293       -0.2008172681
 H         -2.7062813614        3.2227298313       -1.3736737545
 H         -4.4090057367        3.6928108838       -1.3538619934
 H         -5.1372903439        1.4074713166       -1.6220390670
 H         -3.8526947730        1.7005121659       -2.8090848544
 O         -2.0898941962        0.3136055078       -1.8144207830
 C         -1.1707052952       -0.6398416347       -1.3977595901
 O         -0.1092778894       -0.6292149699       -2.0503876712
 O         -3.1279334604       -2.1388999177        1.2532579214
 C         -0.5322069088       -2.5064145583        0.1844784580
 C          0.5048103516       -1.7856195131        1.0135634639
 C          0.1535983951       -1.3804978803        2.3000717402
 C          1.0528509154       -0.7045064272        3.1006320777
 C          2.3209973083       -0.4113362081        2.6300751147
 C          2.6800026005       -0.8022126611        1.3462364014
 C          1.7753478434       -1.4873239533        0.5436353625
 H          2.0754593416       -1.7670233335       -0.4527533607
 N          3.9706782145       -0.5223609566        0.8554850446
 S          4.1166279834        0.3420799159       -0.5737919403
 O          3.7123849112       -0.4736566484       -1.6871233415
 O          5.4922732297        0.7941054849       -0.5811352010
 C          3.0280752505        1.7343901215       -0.3388989182
 C          1.7070947243        1.6414202365       -0.7244843886
 C          0.8537718967        2.6952371050       -0.4342067427
 C          1.3302875427        3.8149932884        0.2285771877
 C          2.6640625519        3.8947212509        0.6014881518
 C          3.5210218256        2.8430658109        0.3228298885
 H          4.5651473702        2.8649656720        0.5907785864
 H          3.0342492183        4.7694685566        1.1114857935
 H          0.6589563209        4.6289929633        0.4527416685
 H         -0.1820942414        2.6240054156       -0.7292775953
 H          1.3601639546        0.7631951886       -1.2467887980
 H          4.5830540640       -0.1174074872        1.5504912553
 H          3.0306418545        0.1123250458        3.2526443122
 H          0.7670665816       -0.4029952991        4.0968250258
 H         -0.8403623116       -1.6059074999        2.6603827144
 H         -1.1172141857       -3.1388264973        0.8674228075
 C          0.0509313723       -3.3857748731       -0.8988861324
 C          0.7045021397       -4.6772681340       -0.5108410637
 C         -0.6164919955       -4.6886472829       -1.2181325705
 H         -0.6491469171       -5.0111712241       -2.2480641393
 H         -1.4968431728       -4.9526441919       -0.6501941590
 H          1.5832579419       -4.9920924060       -1.0528300872
 H          0.7199311403       -4.9326839857        0.5380941399
 H          0.4766421024       -2.8343358729       -1.7279021077
