  62
        -98.95211872
 C         -2.3583586936       -0.3431041770        0.0417320607
 C         -1.5180194791        0.2270536838       -0.9423981458
 C         -1.5241414762        1.6929133602       -1.0255481523
 C         -2.3042849340        2.3951989460       -0.1841315525
 C         -2.4220786094        3.8917430680       -0.1680061685
 C         -1.4343565960        4.5370806042        0.8120256969
 C          0.0059979005        4.0490840377        0.6560825549
 H          0.6188825254        4.6190982146        1.3587985630
 H          0.0722341037        3.0020223718        0.9610973903
 C          0.5816819602        4.1975087794       -0.7591291794
 H         -0.0042128388        4.9219295844       -1.3270056771
 H          1.5978038074        4.5899028406       -0.6795802917
 C          0.6725285823        2.8836029063       -1.5376838997
 H          1.1312054052        2.1251658352       -0.8981688347
 H          1.3329676006        3.0379254931       -2.3954952401
 C         -0.6552824678        2.3310734681       -2.0725005843
 H         -1.1983159811        3.1210689590       -2.5964279616
 H         -0.4226968902        1.5390732768       -2.7903865221
 H         -1.4703693818        5.6195384037        0.6711683265
 H         -1.7603066592        4.3160059274        1.8311657030
 H         -2.2489991073        4.2709731203       -1.1735858199
 H         -3.4385682047        4.1485107415        0.1368074035
 O         -3.0803178773        1.8138225287        0.7670815110
 C         -3.1122518585        0.4369417461        0.9160458706
 O         -3.8461341040        0.0342391040        1.8432888421
 H         -0.4386008861       -0.8669167862        1.6573894672
 C         -0.1374819828       -1.7687131458        1.1440566183
 C         -1.0448112728       -2.4317656356        0.3279180429
 C         -0.6343685353       -3.5979105326       -0.3066971230
 C          0.6596297085       -4.0641950002       -0.1504988316
 C          1.5752406479       -3.3690254571        0.6180525490
 C          1.1702836024       -2.2081006899        1.2663091930
 N          2.0676943068       -1.4481870645        2.0459346308
 S          2.3862238662        0.1151322572        1.5286494384
 O          3.3532632749        0.6325815186        2.4733544864
 O          1.1560980866        0.8518017846        1.4077138590
 C          3.1735765508       -0.0937832291       -0.0592575897
 C          4.5502327961        0.0091074873       -0.1266151839
 C          5.1830066854       -0.2087507361       -1.3391789354
 C          4.4316878102       -0.5347861710       -2.4585679189
 C          3.0524531305       -0.6389384398       -2.3723751794
 C          2.4101325034       -0.4189002998       -1.1627922819
 H          1.3359164674       -0.4905454216       -1.0842058755
 H          2.4598478221       -0.8916511178       -3.2369080224
 H          4.9226041355       -0.7077863469       -3.4033169601
 H          6.2558408625       -0.1263909098       -1.4068954681
 H          5.0905194405        0.2670800991        0.7700124586
 H          2.9440927747       -1.9183284795        2.2285594180
 H          2.5928509345       -3.7161693638        0.7169227459
 H          0.9643298071       -4.9706757266       -0.6507559809
 H         -1.3269554633       -4.1393359139       -0.9301665767
 C         -2.4313377251       -1.8529456012        0.1853440618
 H         -2.9857562495       -2.0461017472        1.1158596221
 C         -3.2071196368       -2.4410227836       -0.9768801208
 C         -4.0278753015       -3.6814392316       -0.7940555411
 C         -4.7026778683       -2.3544077864       -0.9637589411
 H         -5.2159728111       -2.1484026665       -1.8909950267
 H         -5.1621114509       -1.8955733187       -0.1000440079
 H         -4.0418063030       -4.1327269429        0.1865320267
 H         -4.0830345445       -4.3885253191       -1.6080451227
 H         -2.7065702569       -2.2911623148       -1.9268026071
 O         -0.8091118675       -0.4589514848       -1.7259405931
