  62
        -98.94514060
 C         -1.5300164843       -0.7544004016       -0.5452605318
 C         -2.8292547926       -1.3104990361       -0.6015315998
 C         -3.9343157628       -0.3452724659       -0.6294408967
 C         -3.6687033056        0.9739435511       -0.6250853544
 C         -4.6869558292        2.0807671516       -0.6769184146
 C         -5.2774689913        2.4498271522        0.6908277307
 C         -6.2532732470        1.4275058573        1.2747824015
 H         -6.7513723268        1.9061327929        2.1203646028
 H         -7.0201998034        1.1946574635        0.5353526645
 C         -5.5940965106        0.1293280513        1.7613352455
 H         -5.9875527302       -0.1323055295        2.7462778054
 H         -4.5195683366        0.2884253700        1.8782834053
 C         -5.8193558471       -1.0766791149        0.8491720718
 H         -5.2819713910       -1.9304231955        1.2702624386
 H         -6.8824552852       -1.3267206060        0.8280896524
 C         -5.3352394991       -0.8772325914       -0.5932379529
 H         -5.3350104602       -1.8495286522       -1.0921939327
 H         -6.0112812272       -0.2103217459       -1.1279307230
 H         -4.4567024593        2.6123697746        1.3931841584
 H         -5.8067887994        3.3981468562        0.5725075258
 H         -5.4915205499        1.8078724508       -1.3603000244
 H         -4.1727264473        2.9571439504       -1.0768901468
 O         -2.4027963394        1.4680680350       -0.5899946216
 C         -1.3031613050        0.6224194305       -0.5237697569
 O         -0.2077879301        1.2074904350       -0.4570645838
 O         -3.0547018464       -2.5507978402       -0.6239016412
 C         -0.3290342565       -1.6804216168       -0.4966801339
 C          0.4996519801       -1.3828960167        0.7277533060
 C         -0.1317675277       -1.2886187116        1.9659606609
 C          0.5880211961       -0.9862526396        3.1047520951
 C          1.9520032210       -0.7604756270        3.0342277960
 C          2.5943694833       -0.8692383751        1.8074455741
 C          1.8706022828       -1.1937212684        0.6674158386
 H          2.3980068110       -1.2972064064       -0.2647635968
 N          3.9758370631       -0.6668301067        1.7069114094
 S          4.6791010223       -0.1188530293        0.2975025258
 O          4.7593916883       -1.1904620890       -0.6640680987
 O          5.9488272672        0.4257885410        0.7311754819
 C          3.6459179913        1.1926067474       -0.3283474814
 C          3.2136351806        1.1476706102       -1.6371498561
 C          2.4342407858        2.1840157323       -2.1226600971
 C          2.0994357062        3.2412822384       -1.2933887784
 C          2.5433859208        3.2734002421        0.0184639392
 C          3.3258471282        2.2418005717        0.5085444256
 H          3.6881710877        2.2431430411        1.5239965791
 H          2.2739426050        4.0955132746        0.6620379615
 H          1.4815436211        4.0408571599       -1.6702389865
 H          2.0811622957        2.1581679491       -3.1416811277
 H          3.4895753704        0.3015666826       -2.2472469240
 H          4.4240371525       -0.2969551053        2.5312678900
 H          2.5138271313       -0.5085291992        3.9204690784
 H          0.0831563375       -0.9146341283        4.0564826641
 H         -1.2000621977       -1.4494505824        2.0204167918
 H         -0.7403809547       -2.6965672585       -0.4029286784
 C          0.4555650737       -1.5863065834       -1.7883253589
 C          1.2774201021       -2.7466424809       -2.2615655831
 C          0.0123606492       -2.3821677543       -2.9775624244
 H          0.0827159193       -1.9313312208       -3.9560432997
 H         -0.8485174543       -3.0228048545       -2.8531286179
 H          2.2241138563       -2.5488553701       -2.7424088341
 H          1.2775247137       -3.6392152610       -1.6541302026
 H          0.8331956194       -0.5853247331       -1.9679905676
