  62
        -98.94587658
 C          2.4469354903        1.1123488386       -0.0718384796
 C          3.0494048700        0.2043520684        0.8309939504
 C          3.4888887299       -1.0726866316        0.2606645504
 C          3.3032698201       -1.3166580715       -1.0495782696
 C          3.7014799301       -2.5700113515       -1.7802766396
 C          2.6651125799       -3.6979467613       -1.6804007599
 C          2.5825798196       -4.3853623614       -0.3168990300
 H          1.9826426095       -5.2878416013       -0.4491398401
 H          3.5802459195       -4.6978069916       -0.0062473598
 C          1.9429464095       -3.5294563414        0.7857561100
 H          1.3830683297       -2.7068393413        0.3310225799
 H          1.2161400693       -4.1302942613        1.3384918798
 C          2.9354386894       -2.9650123216        1.8034247902
 H          2.3810955193       -2.3473503616        2.5152634501
 H          3.3941515892       -3.7863077617        2.3585133802
 C          4.0495548096       -2.1036190917        1.1934004405
 H          4.7715155896       -2.7343434718        0.6759247206
 H          4.5586815095       -1.5780190919        2.0049977906
 H          1.6829923100       -3.2957865812       -1.9424512101
 H          2.9276460100       -4.4503988813       -2.4276562299
 H          3.8108765903       -2.2957803414       -2.8316086496
 H          4.6639355400       -2.9232094916       -1.4093570495
 O          2.7251178304       -0.4163406313       -1.8866057897
 C          2.2423757205        0.7966431287       -1.4156751997
 O          1.6786931208        1.4918809388       -2.2809996797
 O          3.2032431398        0.4463603783        2.0598338405
 C          1.8926286804        2.4196156886        0.4707647004
 C          0.3870750304        2.3442453188        0.4006569001
 C         -0.4097563093        3.2437888790       -0.2931871900
 C         -1.7800964294        3.0546063492       -0.3636720903
 C         -2.3820822996        1.9715796893        0.2506660395
 C         -1.5934343499        1.0718822491        0.9563011996
 C         -0.2265214299        1.2689407089        1.0337788199
 H          0.3859251499        0.5592679888        1.5777404700
 N         -2.1989456602       -0.0557425109        1.5649618694
 S         -2.6462643101       -1.2468839907        0.4566240093
 O         -2.7704352804       -2.4650173308        1.2280481192
 O         -1.7361384699       -1.2915413508       -0.6668624106
 C         -4.2592822599       -0.7136140505       -0.0698215710
 C         -5.2713258701       -0.6892232404        0.8703221588
 C         -6.5305848200       -0.2580977802        0.4854310486
 C         -6.7543241997        0.1379062800       -0.8251488914
 C         -5.7278232895        0.1054843499       -1.7567916612
 C         -4.4649096296       -0.3236767803       -1.3781485910
 H         -3.6333944795       -0.3579067404       -2.0641665809
 H         -5.9032685493        0.4148973800       -2.7745860712
 H         -7.7347402396        0.4746865801       -1.1228348916
 H         -7.3314189001       -0.2306185801        1.2065800584
 H         -5.0517676104       -1.0096051305        1.8750136688
 H         -1.6013487104       -0.4815491510        2.2614481895
 H         -3.4472531296        1.8181061294        0.1911051693
 H         -2.3868525791        3.7582832593       -0.9126690104
 H          0.0439303909        4.0835883190       -0.7929661499
 H          2.1849836502        2.4415980185        1.5309996404
 C          2.4894870607        3.6205640886       -0.2272745795
 C          2.4921687508        4.9538672185        0.4575053806
 C          3.7733863907        4.1958065984        0.2882865408
 H          4.4984958209        4.5567048483       -0.4254163890
 H          4.2130140905        3.7306751683        1.1585987309
 H          2.3393044810        5.8400754286       -0.1392401893
 H          2.0621159406        5.0074832285        1.4461248906
 H          2.3501001809        3.5941784487       -1.3014720395
