  62
        -98.94227781
 C          0.8213447913        1.2467213103        0.6731009347
 C          1.3538761241        1.0777070894       -0.6257004129
 C          2.1811436702       -0.1232583919       -0.8414838894
 C          2.3702301570       -0.9791812620        0.1772062911
 C          3.1949220714       -2.2378479751        0.1804581969
 C          4.6322262051       -1.9537698290        0.6491554190
 C          5.6017682772       -1.5423194123       -0.4576066224
 H          6.5405010186       -1.2560967348        0.0220376477
 H          5.8081074847       -2.4056546132       -1.0936444348
 C          5.1294232000       -0.3857023354       -1.3417991435
 H          4.6803357443        0.3922242854       -0.7217638849
 H          6.0074667668        0.0495872592       -1.8227243709
 C          4.1339906887       -0.8221148607       -2.4276071731
 H          4.1258180850       -1.9100361999       -2.4927745750
 H          4.4740194829       -0.4579038108       -3.3994893703
 C          2.7014889824       -0.3039029905       -2.2405600016
 H          2.6101164619        0.6862539555       -2.6993315356
 H          2.0019603335       -0.9551444001       -2.7779653441
 H          4.5874762350       -1.1698899270        1.4091964655
 H          5.0279172423       -2.8520980669        1.1271585644
 H          2.7246536897       -2.9163081900        0.8956834514
 H          3.1835477756       -2.7060825774       -0.7996707704
 O          1.8429030221       -0.7735464334        1.4170061438
 C          1.0399890306        0.3191448031        1.6891827747
 O          0.5870730156        0.3517711231        2.8511569319
 H         -1.4585134616        0.2307995374        0.3112132322
 C         -1.8673716367        1.0960775385       -0.1900530785
 C         -1.2940955493        2.3414762699        0.0328639847
 C         -1.8422620137        3.4465154185       -0.6046850076
 C         -2.9146507293        3.2934488865       -1.4669959520
 C         -3.4500940629        2.0443249238       -1.7223488524
 C         -2.9166914671        0.9337493196       -1.0779045474
 N         -3.4333959444       -0.3535889314       -1.2895645573
 S         -2.3958341395       -1.6669901750       -1.3054021623
 O         -1.1129791251       -1.3446553766       -1.8850989135
 O         -3.1501896099       -2.7033958780       -1.9813932051
 C         -2.2118193534       -2.1179759731        0.4059394931
 C         -3.3279662770       -2.1450231388        1.2180874032
 C         -3.1772818384       -2.5129464400        2.5453884405
 C         -1.9233130493       -2.8474116417        3.0339217840
 C         -0.8141036124       -2.8228170713        2.2033407680
 C         -0.9589706476       -2.4580203115        0.8748540436
 H         -0.1206718457       -2.4080072737        0.1962321444
 H          0.1638191666       -3.0674266030        2.5861352397
 H         -1.8053045063       -3.1244004517        4.0695661103
 H         -4.0359904742       -2.5330036812        3.1969807513
 H         -4.2847339007       -1.8729792017        0.8046155860
 H         -4.1401799280       -0.4211288388       -2.0075201108
 H         -4.2684546178        1.9251082666       -2.4159476859
 H         -3.3284607786        4.1589018522       -1.9620846146
 H         -1.4230667810        4.4251612836       -0.4374553730
 C         -0.1066945187        2.4123155879        0.9635683685
 H         -0.4672952647        2.2655273457        1.9926054851
 C          0.6413636585        3.7269069238        0.8900964803
 C          0.2133854648        4.8889169090        1.7340478718
 C          1.4747048910        4.1494357787        2.0613833318
 H          2.4220245381        4.6319745730        1.8733041280
 H          1.4795726494        3.4993210668        2.9243520093
 H          0.2974287310        5.8835628914        1.3227013277
 H         -0.6371604803        4.7490052873        2.3838227517
 H          1.0317048639        3.9266807792       -0.1012241514
 O          1.1549084095        1.8945141188       -1.5635276736
