  62
        -98.93882346
 C         -2.3519564096       -0.7420080597        0.5812816500
 C         -3.4159693395       -0.9833363399       -0.3225920301
 C         -4.6987000495       -0.3408854497        0.0049117896
 C         -4.7979889196        0.4270236005        1.1040470595
 C         -6.0262669697        1.1828947306        1.5187417992
 C         -6.0322320095        2.6020251905        0.9333777389
 C         -5.7412778693        2.6533391502       -0.5665121211
 H         -5.8031182892        3.6996007201       -0.8736825313
 H         -4.7130556293        2.3278425501       -0.7410854009
 C         -6.6926448992        1.8104601101       -1.4272144910
 H         -7.5954226393        1.5771080802       -0.8616402911
 H         -6.9965903391        2.4011132799       -2.2939604512
 C         -6.0816109992        0.5146430999       -1.9632969107
 H         -5.1277678491        0.7333843098       -2.4496814306
 H         -6.7534361991        0.1119472698       -2.7259822507
 C         -5.8512020394       -0.5924650899       -0.9270657005
 H         -6.7698243195       -0.7661638797       -0.3632625406
 H         -5.6023164294       -1.5085585000       -1.4703822703
 H         -7.0060484195        3.0529216405        1.1329399887
 H         -5.2716367896        3.1922976705        1.4497352689
 H         -6.9090981096        0.6388195706        1.1886503091
 H         -6.0368774098        1.2485794608        2.6080059391
 O         -3.7569597597        0.6390448406        1.9493051496
 C         -2.5216486597        0.0649410105        1.7116189098
 O         -1.6616034598        0.3382131006        2.5743354899
 H          1.4511689004       -0.2214275598        0.8732814504
 C          1.1318543905       -0.0961246200       -0.1515441996
 C         -0.1051970394       -0.5730209000       -0.5588686297
 C         -0.4965413093       -0.3775700902       -1.8792164398
 C          0.3382468409        0.2783286196       -2.7653345898
 C          1.5850625208        0.7247850496       -2.3639667297
 C          1.9839708007        0.5356162298       -1.0462869596
 N          3.2389179106        0.9784521698       -0.5990686196
 S          4.0525291704        0.0175173300        0.5281325207
 O          3.8629881504       -1.3799572400        0.2127214910
 O          3.6671717503        0.4301037803        1.8547038706
 C          5.7422149705        0.4931764099        0.2128404109
 C          6.2655550504        1.5938714300        0.8642664307
 C          7.5699037705        1.9752386899        0.5917094008
 C          8.3242520306        1.2547983397       -0.3224208489
 C          7.7859728906        0.1509764896       -0.9669204588
 C          6.4821743406       -0.2354776003       -0.6997129289
 H          6.0258547106       -1.0930251304       -1.1676371488
 H          8.3760531507       -0.4094990305       -1.6739775486
 H          9.3392846206        1.5534724396       -0.5314997588
 H          7.9929775805        2.8303981700        1.0935982607
 H          5.6445450504        2.1165062902        1.5732062806
 H          3.8446876807        1.2767755897       -1.3512828695
 H          2.2426939310        1.2192929294       -3.0628268497
 H          0.0216420110        0.4274109394       -3.7867110399
 H         -1.4561096892       -0.7503532703       -2.2023893099
 C         -0.9629241096       -1.3372924298        0.4216558303
 H         -0.4868896297       -1.2457284896        1.4082201403
 C         -0.9748521096       -2.8061431799        0.0352340106
 C          0.2843940803       -3.6017476199        0.1957086009
 C         -0.8822237398       -3.8513249397        1.1031580208
 H         -1.4446909298       -4.7648320497        0.9808203909
 H         -0.8118010699       -3.5149648895        2.1278199107
 H          0.5205062804       -4.3440251200       -0.5515325490
 H          1.1524155203       -3.0969018699        0.5959944709
 H         -1.5987478095       -3.0174903600       -0.8230700695
 O         -3.3282101494       -1.6946329300       -1.3587636900
