  62
        -98.94530660
 C          2.1330253902        0.8911700996        0.0728092109
 C          2.8460830098        0.2171605492        1.0919962409
 C          3.5720380400       -0.9909204706        0.6786015707
 C          3.4814244804       -1.4071490302       -0.5979660594
 C          4.2083286006       -2.5907746000       -1.1662700196
 C          5.5688513209       -2.1800405098       -1.7470509990
 C          6.4096969105       -1.3204539301       -0.8030112584
 H          7.3576326907       -1.1181315999       -1.3060772480
 H          5.9112696305       -0.3593639102       -0.6575668282
 C          6.6834467300       -1.9610366906        0.5649047915
 H          6.5044889800       -3.0356024006        0.5132647711
 H          7.7373163699       -1.8192655507        0.8131085719
 C          5.8714666796       -1.3671927010        1.7173798814
 H          5.9743852596       -0.2791814410        1.7151823319
 H          6.2945863593       -1.7343283713        2.6561410314
 C          4.3761442696       -1.7091362310        1.7258574808
 H          4.2445390196       -2.7898073610        1.6397077803
 H          3.9672265293       -1.3891998714        2.6889463907
 H          6.1200198109       -3.0857281697       -2.0064549391
 H          5.3955973012       -1.6128130894       -2.6644800788
 H          4.3446637004       -3.3366811502       -0.3854782998
 H          3.5964905109       -3.0193928497       -1.9620371100
 O          2.7442789708       -0.7620372198       -1.5380174995
 C          2.0588746007        0.4056707001       -1.2331335893
 O          1.4359296110        0.9004806904       -2.1907447293
 H         -0.0960771702        0.1327405592        1.2792343498
 C         -0.6988604100        0.8245298594        0.7026188699
 C         -0.0983525998        1.9597582896        0.1708513405
 C         -0.8820111396        2.8382383098       -0.5645888395
 C         -2.2242580595        2.5711619799       -0.7742234601
 C         -2.8144385297        1.4359971697       -0.2507113407
 C         -2.0417402099        0.5544588594        0.4945199693
 N         -2.6361578101       -0.5958873608        1.0471876387
 S         -3.4782537098       -1.6119019704        0.0057219680
 O         -3.4559006100       -2.9086589306        0.6482223975
 O         -2.9532997993       -1.5517815899       -1.3390626118
 C         -5.1405384998       -0.9748870904        0.0464102976
 C         -5.7663121594       -0.6109666000       -1.1297700525
 C         -7.0624835994       -0.1221030200       -1.0753498627
 C         -7.7060251598       -0.0076229004        0.1473833471
 C         -7.0644100002       -0.3805646709        1.3192320272
 C         -5.7692891902       -0.8710687608        1.2718982174
 H         -5.2360623805       -1.1747873812        2.1571677575
 H         -7.5683568006       -0.2902227412        2.2679499370
 H         -8.7137627898        0.3746724296        0.1870476968
 H         -7.5626184891        0.1676550003       -1.9854625228
 H         -5.2227096490       -0.7115854696       -2.0558093523
 H         -2.0026856203       -1.1362235410        1.6194192587
 H         -3.8575064896        1.2228280698       -0.4176389811
 H         -2.8194090693        3.2581254201       -1.3562012000
 H         -0.4402311694        3.7262496200       -0.9853479290
 C          1.3762084601        2.1608368095        0.4205872611
 H          1.5234234497        2.3012578691        1.5019535212
 C          1.9646593703        3.3487523797       -0.3102284483
 C          1.8596767201        4.7233618295        0.2775248522
 C          3.1806568101        4.0166085095        0.2561124824
 H          3.9428706604        4.3630170298       -0.4256464072
 H          3.5710443298        3.6297734592        1.1862689624
 H          1.3546727998        4.8232732092        1.2262220220
 H          1.7170003204        5.5598523398       -0.3896347176
 H          1.9086480207        3.2433767501       -1.3878554183
 O          2.8688014394        0.6041915988        2.2923120011
