  62
        -98.94431839
 C         -2.3434463671       -1.1184506814        0.2051609989
 C         -2.3794353934        0.1569622277       -0.4088936969
 C         -3.3647499313        1.1034232267        0.1365940843
 C         -4.1325009295        0.7359960842        1.1781242848
 C         -5.2126324257        1.5785854738        1.7905614437
 C         -6.5691691806        1.3130204658        1.1223576868
 C         -6.5252663285        1.3590106990       -0.4049845484
 H         -5.9117998424        0.5317701748       -0.7690683399
 H         -7.5420479802        1.1879742286       -0.7648704091
 C         -5.9925501121        2.6766511458       -0.9850791106
 H         -6.0346649308        3.4595816013       -0.2270488467
 H         -6.6416979367        2.9859567170       -1.8069361050
 C         -4.5721127144        2.5936058555       -1.5471798336
 H         -4.5008099510        1.7518257435       -2.2406140409
 H         -4.3780061828        3.5053535701       -2.1185452453
 C         -3.4511030066        2.4581666942       -0.5086461410
 H         -2.4976229770        2.6061162764       -1.0248505916
 H         -3.5529250573        3.2392628768        0.2477020691
 H         -7.2846972754        2.0506061364        1.4900520869
 H         -6.9156694912        0.3222641807        1.4250131286
 H         -5.2839763052        1.3283477585        2.8503484202
 H         -4.9462018207        2.6292270244        1.6929120223
 O         -4.0418390135       -0.4830099673        1.7673653037
 C         -3.1540831068       -1.4350258670        1.2990359175
 O         -3.1795576824       -2.5113693626        1.9280996980
 H          0.4809744544       -0.7830732352       -1.6811727316
 C          0.8347128946       -1.0637284150       -0.7018967397
 C          0.0169282689       -1.8009530248        0.1398907564
 C          0.4812454878       -2.1149678622        1.4140817805
 C          1.7352246164       -1.7063806388        1.8277305649
 C          2.5483497299       -0.9679966951        0.9849956589
 C          2.0856776693       -0.6323232390       -0.2796359341
 N          2.8958728837        0.1284199938       -1.1398099620
 S          3.6596109159        1.4885107504       -0.5206443812
 O          2.9234665733        2.0678715466        0.5793634887
 O          3.8912224414        2.3459598888       -1.6627763986
 C          5.2258400955        0.8611374026        0.0526152149
 C          5.6423179835        1.1208851995        1.3435184639
 C          6.8687560821        0.6300835408        1.7642436297
 C          7.6537381957       -0.1064212040        0.8905549130
 C          7.2226893877       -0.3558461584       -0.4039715194
 C          5.9982624315        0.1325642862       -0.8308179431
 H          5.6284643352       -0.0366901292       -1.8282144447
 H          7.8359957022       -0.9288318566       -1.0806224186
 H          8.6069290965       -0.4882320962        1.2206457461
 H          7.2052441186        0.8236871183        2.7701536949
 H          4.9958389490        1.6933971005        1.9897891623
 H          2.4502316947        0.3420286855       -2.0209342034
 H          3.5225904584       -0.6369304205        1.3053710052
 H          2.0840333302       -1.9620063854        2.8167990320
 H         -0.1630318264       -2.6709741634        2.0810294400
 C         -1.3824218807       -2.2040961991       -0.2571662579
 H         -1.6496172194       -3.1012563007        0.3165653046
 C         -1.5337228324       -2.5111126896       -1.7326126778
 C         -0.9355551908       -3.7711015650       -2.2797664432
 C         -2.4230914501       -3.6398217332       -2.1556200697
 H         -3.0088753330       -3.5240726265       -3.0553264521
 H         -2.9235203757       -4.1999118205       -1.3790798830
 H         -0.4980328937       -3.7491016671       -3.2660646787
 H         -0.4248018737       -4.4206987200       -1.5852423098
 H         -1.5250658981       -1.6303176849       -2.3618509455
 O         -1.6417988669        0.5008153145       -1.3707737478
