  62
        -98.94046115
 C         -2.3645513801       -0.7578117807       -0.1295639728
 C         -3.5601313376       -1.0878169678        0.5521794178
 C         -4.7993829508       -0.5566718636       -0.0300602701
 C         -4.7336548853        0.1803107123       -1.1542053457
 C         -5.9106603367        0.8274994147       -1.8237916090
 C         -6.1319103906        2.2538718983       -1.3010251255
 C         -6.1403518462        2.3586766995        0.2240179151
 H         -5.1448987326        2.1157282910        0.6028163902
 H         -6.3337671243        3.4033252780        0.4771718338
 C         -7.1782602089        1.4641381020        0.9161342155
 H         -7.6848410555        2.0480490439        1.6874419313
 H         -7.9358856178        1.1510342424        0.1969432283
 C         -6.5937667719        0.2295649950        1.6049842863
 H         -5.7704830670        0.5293891207        2.2583610802
 H         -7.3709266465       -0.2067227970        2.2381203892
 C         -6.0886927282       -0.8785632205        0.6722215965
 H         -5.8827591884       -1.7607893399        1.2853988463
 H         -6.8668296711       -1.1357079941       -0.0491278477
 H         -5.3302300473        2.8900532611       -1.6831039152
 H         -7.0788203877        2.6238529111       -1.6982894168
 H         -5.7149346592        0.8694436997       -2.8964883994
 H         -6.7986824154        0.2231633959       -1.6493808225
 O         -3.5675155318        0.4631930261       -1.7895507271
 C         -2.3534104000        0.0137851660       -1.2913551749
 O         -1.3635128425        0.3594929481       -1.9636624319
 O         -3.5882688001       -1.7879816303        1.6003179782
 C         -1.0439123676       -1.2647285589        0.4195899934
 C         -0.1239054876       -0.1085369307        0.7239651253
 C         -0.5980788170        0.9381328135        1.5119823074
 C          0.2108214885        2.0137366259        1.8206564538
 C          1.5163615754        2.0635238530        1.3635982854
 C          1.9995200648        1.0254602927        0.5770385690
 C          1.1810629427       -0.0516736314        0.2634827116
 H          1.5847075669       -0.8411582126       -0.3476126195
 N          3.3106694326        1.0570255655        0.0766948808
 S          4.1564742651       -0.3967554666       -0.0636614802
 O          3.8099811574       -1.0272472392       -1.3123273394
 O          3.9711712143       -1.1933284534        1.1283521028
 C          5.8309654258        0.2130619431       -0.1429937314
 C          6.5928711267        0.2516032615        1.0096658590
 C          7.8828955205        0.7543067734        0.9443696016
 C          8.3854122158        1.2105297628       -0.2649614800
 C          7.6093044183        1.1644546165       -1.4136785961
 C          6.3192678856        0.6614713872       -1.3558003623
 H          5.6830118746        0.5974223711       -2.2232021700
 H          8.0044568678        1.5168101565       -2.3527838981
 H          9.3894936978        1.6013201690       -0.3135414287
 H          8.4898577463        0.7881689700        1.8347176009
 H          6.1633920402       -0.1221791965        1.9252365919
 H          3.8756375235        1.7834156696        0.4946203727
 H          2.1508571667        2.9023442209        1.6064903047
 H         -0.1738248036        2.8178737780        2.4300323165
 H         -1.6154665981        0.8946075733        1.8772767932
 H         -1.2922537511       -1.7608820568        1.3703675354
 C         -0.4386238089       -2.2895816929       -0.5157235398
 C          0.4985194453       -3.3319933435        0.0141927811
 C         -0.8813972162       -3.7178147736       -0.4244576485
 H         -0.9943180092       -4.2819943655       -1.3379770060
 H         -1.6092737727       -3.9631567041        0.3350801385
 H          1.3404296747       -3.6236435367       -0.5963784594
 H          0.7146626432       -3.3177809798        1.0720907273
 H         -0.2443158767       -1.8882560496       -1.5048444496
