  62
        -98.94607792
 C          1.4128049411        0.8427708539       -0.0949265645
 C          2.4947516629        0.8498338071        0.8236813599
 C          3.4591856394       -0.2507174440        0.7157241575
 C          3.2591898254       -1.2056988850       -0.2104399658
 C          4.1805060742       -2.3632948388       -0.4631903067
 C          5.2297835224       -2.0184190897       -1.5293516837
 C          5.9436334037       -0.6888325910       -1.2850676276
 H          6.6801959381       -0.5641165439       -2.0816939008
 H          5.2218184814        0.1250805949       -1.3833684875
 C          6.6413883177       -0.5842515814        0.0782561287
 H          6.7737173253       -1.5795710683        0.5039403929
 H          7.6365657333       -0.1596198645       -0.0692536783
 C          5.9219645908        0.3077948813        1.0916579462
 H          5.7028909320        1.2767284527        0.6361968557
 H          6.6006709233        0.4860602797        1.9299733838
 C          4.6189425880       -0.2569002535        1.6716408750
 H          4.7932363041       -1.2635313466        2.0579086770
 H          4.3207764032        0.3841250357        2.5065605578
 H          5.9626480241       -2.8265297540       -1.5659213933
 H          4.7315795604       -1.9671230899       -2.5002514448
 H          4.6703476230       -2.6393558092        0.4688435898
 H          3.5820819903       -3.2074868055       -0.8109216043
 O          2.2053542710       -1.1941834192       -1.0618517168
 C          1.2544912377       -0.1811734180       -1.0303116084
 O          0.3567678895       -0.3237101736       -1.8826548450
 H         -0.8190320867       -0.4150098319        0.4492898663
 C         -1.2388882666        0.3768436715        1.0484924468
 C         -0.7104155754        1.6563757244        0.9799315228
 C         -1.2580641593        2.6482001162        1.7869756338
 C         -2.3073067277        2.3621013112        2.6404185214
 C         -2.8377320153        1.0858673925        2.6993072953
 C         -2.2957270782        0.0855211887        1.9005975140
 N         -2.7970666501       -1.2226049184        1.9572629891
 S         -2.9154187468       -2.1453101425        0.5654289545
 O         -3.8618007092       -3.1837616107        0.9186201669
 O         -1.6123412261       -2.5995937734        0.1528721268
 C         -3.6568329437       -1.0506798348       -0.6309882469
 C         -2.9111182197       -0.4942714483       -1.6488750520
 C         -3.5309335926        0.3948695085       -2.5152541192
 C         -4.8696156579        0.7110485477       -2.3501644663
 C         -5.6057246605        0.1373582434       -1.3239658368
 C         -4.9947608637       -0.7498391971       -0.4546159918
 H         -5.5335712711       -1.2289385934        0.3467817407
 H         -6.6485809558        0.3804587327       -1.1994337834
 H         -5.3417158470        1.4059953763       -3.0266308372
 H         -2.9547706195        0.8358823885       -3.3134925060
 H         -1.8674803191       -0.7479473433       -1.7553319173
 H         -3.6082792881       -1.3388854035        2.5467754066
 H         -3.6547055371        0.8585113201        3.3666050380
 H         -2.7183456286        3.1392711769        3.2661689213
 H         -0.8446129082        3.6445763073        1.7545132276
 C          0.4231288299        1.9849946714        0.0338575354
 H          0.9929062813        2.8115933000        0.4821118075
 C         -0.1504052056        2.4604094638       -1.2877331442
 C         -0.5421065657        3.8963131619       -1.4574237492
 C          0.6649633771        3.3599003027       -2.1655556667
 H          0.6229975870        3.2107789676       -3.2338010723
 H          1.6403447566        3.6554263405       -1.8065784823
 H         -0.3792457293        4.5670544338       -0.6280316030
 H         -1.4221231486        4.1218457178       -2.0392946745
 H         -0.7598484719        1.7124988651       -1.7769601604
 O          2.6473880303        1.7491413167        1.6947445079
