  62
        -98.93414266
 C         -2.0748564359       -0.9544598395        0.5907163961
 C         -2.8406647382        0.0768551762        1.1868084734
 C         -4.2360005892        0.2379982153        0.7370066496
 C         -4.7100237613       -0.6033788610       -0.2003549380
 C         -6.0707107216       -0.6126198729       -0.8445063934
 C         -6.2349482598        0.4987843911       -1.8938542825
 C         -5.6970485610        1.8642274911       -1.4737330356
 H         -4.6372958018        1.7728604184       -1.2279129416
 H         -5.7718826745        2.5305968690       -2.3372343118
 C         -6.4332106047        2.5243415989       -0.3102554244
 H         -6.0031578799        3.5206256187       -0.1783729972
 H         -7.4850095947        2.6500466721       -0.5771022028
 C         -6.3568655364        1.7936361077        1.0320151033
 H         -6.7078960527        2.4886687937        1.8005725567
 H         -7.0328879863        0.9430749879        1.0544452294
 C         -4.9529149756        1.3623855290        1.4447336745
 H         -4.9733445630        1.0784030777        2.5040546384
 H         -4.2820195357        2.2276453965        1.3929410750
 H         -5.6977450701        0.1937988223       -2.7952106049
 H         -7.2936853709        0.5833384132       -2.1447240574
 H         -6.8442630910       -0.5465599045       -0.0852293556
 H         -6.1751403469       -1.5788970261       -1.3429322071
 O         -3.9416761318       -1.5887172767       -0.7415600685
 C         -2.6179213685       -1.7919492732       -0.3839053574
 O         -2.0720525393       -2.7276191691       -0.9953581241
 O         -2.3745646259        0.8445119899        2.0734435644
 C         -0.6390622141       -1.0921312418        1.0619655019
 C          0.2909556323       -0.2722002396        0.2047806806
 C          0.2695355213       -0.3727892999       -1.1826489317
 C          1.1394445397        0.3761901304       -1.9542257485
 C          2.0537129376        1.2284572312       -1.3604079824
 C          2.0895721477        1.3289325867        0.0239618389
 C          1.2092046426        0.5825428617        0.7967834610
 H          1.2283236189        0.6799596533        1.8737504626
 N          3.0489755338        2.1622662325        0.6261006969
 S          4.6352704986        1.9377293031        0.1267924125
 O          5.4503657495        2.3245146893        1.2563642619
 O          4.8643426781        2.6666707502       -1.0949748062
 C          4.7547451499        0.1833974305       -0.1782759416
 C          4.5829144188       -0.6753092380        0.8898393263
 C          4.5965406643       -2.0413333472        0.6615133081
 C          4.7768082808       -2.5233902548       -0.6259442924
 C          4.9571012454       -1.6492072371       -1.6861116432
 C          4.9434600594       -0.2814181916       -1.4634931042
 H          5.0748063744        0.4322950506       -2.2603071181
 H          5.1006995450       -2.0274311777       -2.6854427403
 H          4.7756503364       -3.5873889915       -0.8015622383
 H          4.4573867251       -2.7255817157        1.4828258063
 H          4.4502562851       -0.2670823488        1.8792152620
 H          2.9858239065        2.1981678383        1.6331643841
 H          2.7389167629        1.8191272258       -1.9466045130
 H          1.1082679823        0.2923908220       -3.0298823465
 H         -0.4314837495       -1.0497640216       -1.6468311981
 H         -0.6360182356       -0.6464316193        2.0694179982
 C         -0.1784134633       -2.5372636593        1.2020166317
 C          0.8892229481       -3.1521202060        0.3519456763
 C          1.1712841034       -2.8324372074        1.7871022108
 H          1.2627424316       -3.6420988103        2.4949453558
 H          1.8148005356       -1.9892858887        1.9887569440
 H          0.7594815778       -4.1833896393        0.0624646343
 H          1.3564378316       -2.5432028636       -0.4060283251
 H         -0.9909327726       -3.1926846737        1.4973828427
