  62
        -98.93615881
 C         -1.7785954596       -0.7231919000        0.9031651596
 C         -2.1311944599       -0.3678662888       -0.4206084301
 C         -3.5706299099       -0.3841638486       -0.7284849698
 C         -4.4438512397       -0.7427899795        0.2303289700
 C         -5.9402454498       -0.7298139794        0.0961310103
 C         -6.4662650998        0.7151107704        0.2136431817
 C         -7.1110160200        1.2566612316       -1.0623640477
 H         -8.1026879100        0.8132480717       -1.1745259379
 H         -7.2445641800        2.3324857115       -0.9299296667
 C         -6.3360779303        1.0060206628       -2.3596640680
 H         -6.5095606203       -0.0162997769       -2.6987961589
 H         -6.7668630004        1.6627418535       -3.1185019474
 C         -4.8229893003        1.2522135628       -2.2968203181
 H         -4.5795835901        1.9547135521       -1.4993843075
 H         -4.5162023504        1.7190609537       -3.2349914177
 C         -3.9721756002       -0.0209984573       -2.1313888394
 H         -4.4871730603       -0.8667622169       -2.5952452501
 H         -3.0261904903        0.1204413232       -2.6623775094
 H         -7.2010463997        0.7710652697        1.0183016319
 H         -5.6339706698        1.3599023602        0.5038960322
 H         -6.2280530999       -1.1658319986       -0.8578266800
 H         -6.3438546396       -1.3472841402        0.8988198298
 O         -4.0622607795       -1.0913159906        1.4874373196
 C         -2.7275169494       -1.0850525709        1.8576425694
 O         -2.5187549092       -1.4115465720        3.0440837991
 H          2.1657611702       -0.0831803994        0.3197754994
 C          1.5795109103        0.7829410504        0.5770252403
 C          0.3005305204        0.6333935998        1.0901858804
 C         -0.4184280096        1.7768774395        1.4290816116
 C          0.1194532103        3.0337915997        1.2352068226
 C          1.3952359502        3.1786295002        0.7190821425
 C          2.1290263702        2.0451475105        0.3941538714
 N          3.4193183201        2.1582390311       -0.1416989988
 S          4.6178655802        1.0798558007        0.2978904700
 O          4.4732999305        0.6485009394        1.6686550397
 O          5.8540887701        1.7619468410       -0.0230977496
 C          4.4248303001       -0.3029161783       -0.8067979512
 C          4.0459626598       -0.0754284871       -2.1149086409
 C          3.9396268997       -1.1549678063       -2.9771582419
 C          4.2207656698       -2.4348580867       -2.5236275331
 C          4.6068487700       -2.6456986479       -1.2091110734
 C          4.7103947602       -1.5706750187       -0.3399917824
 H          4.9947928004       -1.6908765997        0.6933805974
 H          4.8252780701       -3.6417090382       -0.8574298243
 H          4.1367334497       -3.2729043361       -3.1975235238
 H          3.6359136695       -0.9951022054       -3.9992294217
 H          3.8302619797        0.9302689032       -2.4347270600
 H          3.7704117501        3.1012136911       -0.2211444380
 H          1.8177398202        4.1603888604        0.5679041134
 H         -0.4557010197        3.9102288895        1.4942195435
 H         -1.4124206795        1.6656996191        1.8414846117
 C         -0.3194937796       -0.7238603204        1.3189457593
 H         -0.3099905293       -0.9203960614        2.4017638191
 C          0.4146368204       -1.8469732897        0.6149543481
 C          1.5762533405       -2.5267355703        1.2730560073
 C          0.2670684605       -3.2430328002        1.1381193369
 H          0.1934158104       -4.0545484996        0.4301062262
 H         -0.3394945293       -3.3777174810        2.0221550669
 H          1.8712280507       -2.1797939712        2.2522636876
 H          2.4002738204       -2.8471971597        0.6536343369
 H          0.4411276802       -1.7140304187       -0.4606308018
 O         -1.2887573100       -0.0523457680       -1.3004375399
