  62
        -98.93749401
 C         -1.9400865580       -0.8575367263        0.4991450374
 C         -2.1739662082       -0.2341099024       -0.7476612423
 C         -2.5449259167        1.1909317506       -0.7040095362
 C         -2.5897343112        1.8194487683        0.4832651306
 C         -2.9864161738        3.2460299813        0.7456577936
 C         -4.4826103522        3.3385644049        1.0909260508
 C         -5.4141327745        3.4712380729       -0.1133802028
 H         -6.4380336274        3.3909476181        0.2585979988
 H         -5.2993730899        4.4671270783       -0.5461513913
 C         -5.2095676668        2.4315756774       -1.2185087184
 H         -5.0610986251        1.4458735774       -0.7739646560
 H         -6.1270875435        2.3860669592       -1.8082750645
 C         -4.0365797439        2.7653115027       -2.1523945958
 H         -3.7290893960        3.7968464349       -1.9813805548
 H         -4.3742441193        2.7099654580       -3.1892287181
 C         -2.8161505215        1.8384979932       -2.0345181229
 H         -2.9246546579        1.0006195928       -2.7304718352
 H         -1.9182039823        2.3848514102       -2.3423431041
 H         -4.7474232143        2.4478600110        1.6665584964
 H         -4.6397873995        4.2040266233        1.7377980942
 H         -2.4056136143        3.5757992623        1.6097963181
 H         -2.7371598335        3.8754295560       -0.1035152947
 O         -2.3206686347        1.1886983595        1.6606572374
 C         -1.9902546177       -0.1527636450        1.6996936722
 O         -1.7720334336       -0.5990919132        2.8465086281
 H          0.5677814629       -0.6948195985        0.3959906537
 C          0.7231258692       -1.5970648605       -0.1789946370
 C         -0.2778566519       -2.5584851353       -0.2306393379
 C         -0.0504502088       -3.7137074189       -0.9682405126
 C          1.1470492679       -3.8906243554       -1.6395218192
 C          2.1388757558       -2.9294614552       -1.5879172779
 C          1.9189240097       -1.7664260337       -0.8565719515
 N          2.8875515554       -0.7501572850       -0.8244717528
 S          2.9355388281        0.3265331915        0.4686064983
 O          2.9150668998       -0.3941154198        1.7228219855
 O          1.9149917249        1.3288900433        0.2839575745
 C          4.5458658307        1.0473170991        0.2082281610
 C          5.6393653461        0.5051471508        0.8572879951
 C          6.8939087426        1.0466054949        0.6250356357
 C          7.0337843883        2.1139635748       -0.2493156062
 C          5.9271283765        2.6488528317       -0.8919175815
 C          4.6698006429        2.1121477196       -0.6638408629
 H          3.7795304294        2.4980734478       -1.1327447627
 H          6.0384805229        3.4809111384       -1.5682646610
 H          8.0109435621        2.5336226854       -0.4286603333
 H          7.7551338547        0.6351626428        1.1261563685
 H          5.4803338511       -0.3168631371        1.5365767434
 H          3.8080683701       -1.0625758929       -1.1001559401
 H          3.0703679585       -3.0680397109       -2.1148217630
 H          1.3108415652       -4.7927344383       -2.2091992612
 H         -0.8118500745       -4.4748100239       -1.0179535111
 C         -1.5492344412       -2.3215955595        0.5503144447
 H         -1.3379259371       -2.5419012837        1.6084288476
 C         -2.7040272155       -3.1893333837        0.0906769922
 C         -2.9230868592       -4.5453422054        0.6892506491
 C         -3.8504716998       -3.4183408726        1.0277557451
 H         -4.8519784867       -3.4314899286        0.6248886651
 H         -3.7803678589       -2.9730565223        2.0100657882
 H         -3.2927246023       -5.3358648367        0.0536714391
 H         -2.2314062197       -4.8742747655        1.4502399042
 H         -2.9354624354       -3.0457834279       -0.9584252634
 O         -2.0876723792       -0.8393451643       -1.8491129263
