  62
        -98.94339501
 C          2.2847647524       -0.5852249793       -0.0497317944
 C          3.1818629800       -0.2200787616       -1.0899791237
 C          4.1296044007        0.8599793415       -0.7925007764
 C          4.0899697387        1.4506968572        0.4152564715
 C          5.0313550163        2.5231194058        0.8791469913
 C          6.2543952333        1.9198191529        1.5842634988
 C          6.9226943098        0.7884674482        0.8028860085
 H          7.7893360162        0.4617926446        1.3817443527
 H          6.2364585025       -0.0597256758        0.7465644197
 C          7.3697990763        1.1730531867       -0.6144333464
 H          7.4206505851        2.2586527945       -0.7050072061
 H          8.3775500619        0.7864378855       -0.7802643412
 C          6.4883089671        0.6122905624       -1.7320208756
 H          7.0101780928        0.7572195329       -2.6816399936
 H          6.3586893994       -0.4637372533       -1.5911599898
 C          5.1004153054        1.2505921486       -1.8710414505
 H          4.6640211451        0.8967763595       -2.8095225581
 H          5.1986249858        2.3366251523       -1.9254183380
 H          6.9776132183        2.7174071287        1.7636523670
 H          5.9363025187        1.5254621521        2.5522084697
 H          5.3478273324        3.1160450820        0.0232191431
 H          4.4999853690        3.1682833987        1.5808120063
 O          3.2046246579        1.0944306569        1.3778769752
 C          2.2905371508        0.0690176320        1.1819574412
 O          1.5639836801       -0.1349765287        2.1769193105
 O          3.1921840603       -0.7830514498       -2.2167274402
 C          1.3343640000       -1.7318935976       -0.3515465707
 C         -0.0547458773       -1.2507895057       -0.6988975304
 C         -0.6121080006       -1.5268096397       -1.9419230879
 C         -1.8976846990       -1.1140504682       -2.2455620630
 C         -2.6511457092       -0.4153555453       -1.3195633248
 C         -2.1021597451       -0.1308825503       -0.0760510362
 C         -0.8158289167       -0.5524774306        0.2278412282
 H         -0.3941429042       -0.3270044149        1.1963522205
 N         -2.8525926155        0.5982106570        0.8660163890
 S         -4.3618458412       -0.0092435491        1.2872931824
 O         -4.6405493795        0.5320993570        2.5995411379
 O         -4.4062427957       -1.4482622482        1.1631443668
 C         -5.4677493922        0.7362649371        0.1071869256
 C         -6.2697186361       -0.0620051651       -0.6848362168
 C         -7.1294977189        0.5407456046       -1.5900146834
 C         -7.1721642480        1.9232083985       -1.6860156938
 C         -6.3622243867        2.7108000428       -0.8811585460
 C         -5.5015656147        2.1147061865        0.0266573815
 H         -4.8589730236        2.6893446629        0.6727771354
 H         -6.3983786665        3.7855676722       -0.9583415063
 H         -7.8408472067        2.3900292942       -2.3918958930
 H         -7.7604621808       -0.0696233447       -2.2159042474
 H         -6.1975925181       -1.1326530032       -0.5789943933
 H         -2.3251193340        0.8248958393        1.6976334439
 H         -3.6519028117       -0.0887271151       -1.5507078112
 H         -2.3172447316       -1.3364785907       -3.2147085348
 H         -0.0260079428       -2.0616099502       -2.6749955958
 H          1.7502310516       -2.2151985484       -1.2459540752
 C          1.2700892131       -2.7621245927        0.7603670627
 C          0.8230786260       -4.1547149384        0.4364225427
 C          2.2577808075       -3.8880647019        0.7783450919
 H          2.6355062077       -4.2261300289        1.7316500447
 H          2.9866213835       -3.9257722236       -0.0182145751
 H          0.2094753038       -4.6775161815        1.1540438668
 H          0.5799166008       -4.3751314790       -0.5918988803
 H          0.9722522539       -2.3478689522        1.7151092501
