  62
        -98.94038905
 C         -1.4782486347       -1.4837286948       -0.0407549093
 C         -2.5555340823       -1.0316952711        0.7510173372
 C         -3.2679830597        0.1723044301        0.2791446273
 C         -2.8440932915        0.7725165609       -0.8490452820
 C         -3.3845088811        2.0291233204       -1.4775347914
 C         -2.9368066665        3.3083932244       -0.7451882073
 C         -2.8890362022        3.2038281136        0.7777728727
 H         -2.3894809188        4.0985652738        1.1594779948
 H         -2.2746473682        2.3463979380        1.0606199444
 C         -4.2495610556        3.1023407792        1.4633067662
 H         -4.8129325961        4.0188802636        1.2725256080
 H         -4.0726219361        3.0402109924        2.5403511844
 C         -5.1150393227        1.9134794672        1.0470338616
 H         -5.5125341690        2.0609251911        0.0466222496
 H         -5.9751025334        1.8843441364        1.7227319672
 C         -4.4349500609        0.5515198583        1.1585544012
 H         -5.1934689392       -0.2258947675        1.0026294603
 H         -4.0860241582        0.4119985791        2.1882135160
 H         -3.6013058187        4.1244524931       -1.0330201536
 H         -1.9300500150        3.5616061908       -1.0851299469
 H         -4.4679639715        1.9714345489       -1.5333709281
 H         -3.0028574419        2.0601876806       -2.5001374132
 O         -1.7877777899        0.3082262402       -1.5741395979
 C         -1.0835158485       -0.8237027478       -1.2050939314
 O         -0.1544180421       -1.1313160549       -1.9714623321
 O         -2.9050975518       -1.5985565294        1.8235209572
 C         -0.6869306547       -2.7007908348        0.4014855832
 C          0.7667611418       -2.3273142847        0.5566734259
 C          1.8147420643       -3.0957402620        0.0683657467
 C          3.1246178449       -2.6694532451        0.2116955617
 C          3.4189323328       -1.4741211159        0.8407374662
 C          2.3779488767       -0.7038894214        1.3432011445
 C          1.0697688615       -1.1376914072        1.2081035569
 H          0.2622207084       -0.5312254900        1.6004819311
 N          2.6609208800        0.5285116453        1.9699841149
 S          3.4709722643        1.6554791063        1.0264623831
 O          4.8592484341        1.2789293649        0.9389150773
 O          3.1971710969        2.9339420326        1.6442517447
 C          2.7075932083        1.5600235455       -0.5807154687
 C          3.3048667850        0.8140700584       -1.5758096244
 C          2.6690225437        0.7028876160       -2.8011995378
 C          1.4551671228        1.3365938789       -3.0097824559
 C          0.8713546960        2.0866488218       -2.0016950457
 C          1.4958796809        2.1938240682       -0.7708827152
 H          1.0694978236        2.7671929848        0.0379714695
 H         -0.0775564240        2.5705218659       -2.1691085603
 H          0.9543883575        1.2392816653       -3.9596532279
 H          3.1157683479        0.1143403589       -3.5859949374
 H          4.2517950709        0.3403026296       -1.3755854297
 H          1.8414154812        0.9602876621        2.3736711923
 H          4.4312305509       -1.1181071428        0.9439763974
 H          3.9280323130       -3.2748181319       -0.1793847007
 H          1.6066573849       -4.0251355162       -0.4355264981
 H         -1.0851621656       -2.9703883472        1.3911618020
 C         -0.9178736043       -3.8572402270       -0.5481938293
 C         -0.8409536834       -5.2702899879       -0.0544882524
 C         -2.1683707386       -4.6701270622       -0.4050459369
 H         -2.6697369500       -5.0080427591       -1.2995325985
 H         -2.8410727505       -4.4063390334        0.3981370651
 H         -0.4328591473       -6.0246470867       -0.7101319578
 H         -0.6154469286       -5.4244850552        0.9899216231
 H         -0.5720147001       -3.6437401291       -1.5532793820
