  62
        -98.94472195
 C          1.9139168780       -0.3314187402        0.7072842441
 C          2.9356286302       -1.2376689944        0.3357120011
 C          4.3022504860       -0.7004822252        0.3362588717
 C          4.5043049873        0.5805455190        0.6955970519
 C          5.8360108422        1.2724740962        0.6834962029
 C          6.0919571378        1.9581112118       -0.6660786652
 C          5.8412719054        1.0562673755       -1.8747399049
 H          4.7766566675        0.8167072481       -1.9248503742
 H          6.0820481735        1.6361145588       -2.7684024923
 C          6.6545830352       -0.2457180988       -1.8751756657
 H          7.4947165181       -0.1577201291       -1.1854242787
 H          7.0697221706       -0.3989055230       -2.8735622796
 C          5.8465933025       -1.4984309434       -1.5315848955
 H          4.9533506555       -1.5419101646       -2.1597883942
 H          6.4572566727       -2.3731015890       -1.7706702652
 C          5.4120520708       -1.6306160473       -0.0664382893
 H          5.0202077970       -2.6423046300        0.0736376438
 H          6.2774378987       -1.5042388428        0.5871322937
 H          7.1238828225        2.3134667184       -0.6824451399
 H          5.4323030421        2.8255517299       -0.7436462242
 H          5.8382998946        2.0279222347        1.4710163215
 H          6.6198180971        0.5458194542        0.8883611746
 O          3.4998604432        1.4148286140        1.0676222858
 C          2.1794695278        0.9876158650        1.0744446396
 O          1.3597359760        1.8587848531        1.4211247528
 H         -1.9063741327        0.5272058706        1.2109081376
 C         -1.5417497421        0.6438667165        0.2046605910
 C         -0.3629497826        0.0390166040       -0.2000708878
 C          0.0683580937        0.2325787594       -1.5109966285
 C         -0.6468885386        1.0296867751       -2.3817712214
 C         -1.8196629129        1.6396039650       -1.9702614078
 C         -2.2659963037        1.4447830825       -0.6699827427
 N         -3.4508871074        2.0536047898       -0.2234007667
 S         -4.5783999047        1.1473730145        0.6156346161
 O         -5.8024061892        1.9121211076        0.5217246971
 O         -4.1073134956        0.8619661668        1.9460493022
 C         -4.7202720854       -0.3543782761       -0.3353046220
 C         -5.4624826664       -0.3201568389       -1.4999813748
 C         -5.5214552212       -1.4553368612       -2.2913697325
 C         -4.8324781242       -2.5973258817       -1.9112862467
 C         -4.0938964532       -2.6158456568       -0.7385137857
 C         -4.0346240035       -1.4844389698        0.0600901097
 H         -3.4745777118       -1.4611229685        0.9800958396
 H         -3.5607158289       -3.5056119896       -0.4434954755
 H         -4.8726377294       -3.4793421951       -2.5308297212
 H         -6.0995967634       -1.4463700730       -3.2012732507
 H         -5.9907018577        0.5843236352       -1.7547799791
 H         -3.9033377170        2.6349533939       -0.9138848097
 H         -2.3773404055        2.2699592375       -2.6461149412
 H         -0.2926204252        1.1771899615       -3.3908232144
 H          0.9844810973       -0.2439650485       -1.8324924855
 C          0.4750965752       -0.8163587458        0.7166553161
 H          0.5104954212       -1.8352455407        0.3027751742
 C         -0.0475626828       -0.8875888998        2.1354223860
 C         -1.0744280244       -1.9120042635        2.5113279628
 C          0.3368900374       -2.0530486193        2.9950835442
 H          0.5488350082       -1.8754434467        4.0387506281
 H          0.9564495218       -2.8161051358        2.5468934236
 H         -1.4041589142       -2.5909795259        1.7392992827
 H         -1.8413933555       -1.6375025795        3.2208107222
 H         -0.0960657454        0.0846216304        2.6139885253
 O          2.7132271762       -2.4357286441        0.0134635906
