  62
        -98.94037454
 C          2.1768064914        0.7139770801        0.1983129122
 C          3.0161317579        0.0506334664        1.1288613692
 C          3.8423030025       -1.0410921002        0.5970465902
 C          3.7127426485       -1.3908280229       -0.6955395129
 C          4.5276845243       -2.4455100125       -1.3849656179
 C          5.7909807035       -1.8445254966       -2.0172497574
 C          6.5907672032       -0.9498355763       -1.0702081209
 H          7.4736299840       -0.6075155015       -1.6142631439
 H          5.9983435862       -0.0635886231       -0.8310847389
 C          7.0268212858       -1.6337893020        0.2331376634
 H          6.9661228557       -2.7169544100        0.1214906039
 H          8.0726944575       -1.3859113577        0.4258678699
 C          6.2335828267       -1.2074640008        1.4699234652
 H          6.7575390611       -1.5783254409        2.3548956030
 H          6.2148001282       -0.1164566866        1.5354802294
 C          4.7897726366       -1.7200236654        1.5455465177
 H          4.4125789936       -1.5060143707        2.5501189258
 H          4.7751280530       -2.8018567713        1.3972580520
 H          6.4231121372       -2.6620218024       -2.3684981727
 H          5.4943523055       -1.2477978258       -2.8828895105
 H          3.9165679547       -2.8934320500       -2.1703093862
 H          4.7995673806       -3.2156762520       -0.6655929650
 O          2.8411413655       -0.7846468692       -1.5393459876
 C          2.0557992631        0.2850663762       -1.1247374915
 O          1.3113469232        0.7352726043       -2.0135344862
 O          3.0662015352        0.3545642135        2.3516605448
 C          1.3322443638        1.8661402162        0.7110572081
 C         -0.1022896598        1.7050700138        0.2725807625
 C         -0.8120028074        2.6746671462       -0.4220208626
 C         -2.1314231967        2.4553560379       -0.7788921241
 C         -2.7689673150        1.2724210750       -0.4563338862
 C         -2.0702313093        0.2959205913        0.2421364627
 C         -0.7533118656        0.5233846290        0.6082035513
 H         -0.2090652333       -0.2388674395        1.1541793904
 N         -2.7043591669       -0.9192411677        0.5583291464
 S         -4.1914275730       -0.8578823903        1.3354990664
 O         -4.3106163272        0.3261186780        2.1550137920
 O         -4.3119018850       -2.1268483911        2.0201742429
 C         -5.3729213077       -0.8016608328        0.0052319634
 C         -5.3366219903       -1.8066716958       -0.9413438382
 C         -6.2539765433       -1.7807146001       -1.9795779995
 C         -7.1884816357       -0.7582409236       -2.0512963898
 C         -7.2145253016        0.2409954513       -1.0905341966
 C         -6.2989620050        0.2215458135       -0.0498414840
 H         -6.2767597861        0.9799746049        0.7163692349
 H         -7.9420873614        1.0345288077       -1.1479458135
 H         -7.9006860690       -0.7405020173       -2.8610429811
 H         -6.2365464205       -2.5559131886       -2.7286834920
 H         -4.5966498358       -2.5840552907       -0.8480265804
 H         -2.0969220001       -1.5881864841        1.0088438353
 H         -3.7929952412        1.0958379606       -0.7418537438
 H         -2.6688706285        3.2157454900       -1.3246899819
 H         -0.3281951855        3.5954584579       -0.7026012712
 H          1.3578257123        1.7519957407        1.8086867492
 C          1.9075925655        3.2424733176        0.4107469138
 C          3.3754988994        3.4328783467        0.1751323870
 C          2.4056415660        3.6237900528       -0.9500485173
 H          2.2210696911        4.6291370697       -1.2995306041
 H          2.3589938084        2.8756349995       -1.7253831649
 H          3.8545937068        4.3025720897        0.5993199521
 H          4.0001373707        2.5511997151        0.1678924879
 H          1.4120664787        4.0207071985        0.9832651093
