  62
        -98.94463987
 C         -0.7909501526       -1.3576828103        0.3033140707
 C         -1.1567589012       -0.4600101123       -0.7296283469
 C         -2.2652834185        0.4535219780       -0.4118648732
 C         -2.7751336790        0.4919441413        0.8310357850
 C         -3.8925884195        1.3788912515        1.3085592521
 C         -5.2926672861        0.8210880407        1.0164351705
 C         -5.7204715607        0.8717532926       -0.4510602687
 H         -6.7907240507        0.6576600928       -0.4801411674
 H         -5.5813069123        1.8826603968       -0.8354192701
 C         -4.9938529208       -0.1305711698       -1.3591214963
 H         -4.5210308686       -0.9018508229       -0.7468589761
 H         -5.7205009092       -0.6336536913       -2.0011522292
 C         -3.9370806036        0.4905412198       -2.2733504711
 H         -4.4186795659        1.1636616637       -2.9864176406
 H         -3.4590568990       -0.3125689122       -2.8403228353
 C         -2.8400609089        1.2665323156       -1.5322227530
 H         -2.0329609005        1.4807561786       -2.2374205771
 H         -3.2404329050        2.2089777246       -1.1595302899
 H         -5.3398646707       -0.2102017732        1.3734104212
 H         -6.0060873644        1.4075811554        1.5999178751
 H         -3.7783920845        1.4681635645        2.3906245024
 H         -3.7981931405        2.3693611445        0.8636472631
 O         -2.3007869873       -0.2921089015        1.8341476787
 C         -1.3488833174       -1.2639285251        1.5823996606
 O         -1.0766092170       -1.9773718058        2.5685571699
 H          1.5882992864       -0.3972875013       -0.9583229102
 C          2.1691481967       -0.9378224230       -0.2263135005
 C          1.6239087154       -2.0389658167        0.4195809378
 C          2.4014503037       -2.7328057407        1.3397489982
 C          3.6986845994       -2.3360949273        1.6078665745
 C          4.2346244400       -1.2279982861        0.9786811715
 C          3.4623968732       -0.5229101432        0.0608599769
 N          3.9850772836        0.6147935502       -0.5659576785
 S          3.0090614658        1.8644554043       -1.0740470806
 O          2.4286382842        1.5617952454       -2.3565154506
 O          3.8861988461        3.0187778866       -1.0519236204
 C          1.7321317189        2.0936634070        0.1533553223
 C          0.5193705238        2.5907335992       -0.2762423744
 C         -0.4669514564        2.8616855416        0.6578345382
 C         -0.2326395780        2.6141385671        2.0006656110
 C          0.9893237994        2.1111798891        2.4172149862
 C          1.9882339801        1.8609599246        1.4899033626
 H          2.9480787758        1.4828359782        1.8014520580
 H          1.1685042842        1.9144737158        3.4621025406
 H         -1.0061456554        2.8131632034        2.7255238414
 H         -1.4117542193        3.2652512916        0.3334459027
 H          0.3673170135        2.7438388002       -1.3326771106
 H          4.8679413426        0.9443003644       -0.2048090240
 H          5.2418868925       -0.9052230861        1.1932794528
 H          4.2938807072       -2.8856868123        2.3207754234
 H          1.9764613623       -3.5810848662        1.8550166186
 C          0.2125154957       -2.4862933153        0.1279344042
 H         -0.0558713420       -3.2374940319        0.8842526091
 C          0.1485578270       -3.1450192859       -1.2367915374
 C          0.5835787024       -4.5712768788       -1.3778284909
 C         -0.8683490005       -4.2154427006       -1.4879999665
 H         -1.3422913235       -4.2576002087       -2.4571660503
 H         -1.5224705923       -4.4844013905       -0.6709646493
 H          1.1117351840       -4.8607316905       -2.2733086757
 H          0.9109844208       -5.0874255016       -0.4880720823
 H          0.3697633508       -2.4671842424       -2.0508977834
 O         -0.6170729788       -0.4094245145       -1.8658985704
