  62
        -98.94469498
 C         -0.8031940224       -1.8762496947        0.1993133903
 C         -1.5879269888       -1.1005145284        1.0855521211
 C         -2.8661121930       -0.6110963369        0.5516189757
 C         -3.1905566836       -0.8810202423       -0.7263744160
 C         -4.4416487554       -0.4133541985       -1.4111388446
 C         -4.2341208572        0.9443173147       -2.0961439562
 C         -3.5966448192        1.9998126390       -1.1929344551
 H         -2.5736313679        1.6977762531       -0.9577260460
 H         -3.5362454512        2.9248736706       -1.7692891499
 C         -4.3601044850        2.2588135507        0.1131230195
 H         -5.3785509863        1.8777676900        0.0299917481
 H         -4.4326551226        3.3364777158        0.2716442030
 C         -3.6976360666        1.6666167811        1.3580338317
 H         -2.6459401444        1.9586486665        1.3879438360
 H         -4.1857016429        2.0913791590        2.2391727083
 C         -3.7689022141        0.1408255031        1.4894043951
 H         -3.4352144902       -0.1209963922        2.4978650939
 H         -4.8024149076       -0.1931911544        1.3739052213
 H         -5.2028635064        1.3012609238       -2.4507148147
 H         -3.5869508697        0.7983335194       -2.9638943837
 H         -4.7148928204       -1.1531102068       -2.1655529355
 H         -5.2439812142       -0.3436827892       -0.6789386081
 O         -2.3882352514       -1.5894046342       -1.5613477220
 C         -1.1873310738       -2.1240698922       -1.1185550926
 O         -0.5730959512       -2.7843004482       -1.9769774779
 H          1.2993055910       -0.0016611466        0.2568053531
 C          1.9240628220       -0.7153732681       -0.2638723044
 C          1.6530831138       -2.0744470728       -0.1467373445
 C          2.4695586523       -2.9759056332       -0.8168167495
 C          3.5200534990       -2.5254209951       -1.5963222713
 C          3.7940136420       -1.1750832420       -1.6998575877
 C          2.9914510546       -0.2636512583       -1.0226326296
 N          3.2486291530        1.1143248742       -1.1055460380
 S          3.1626326781        2.0529385461        0.2774384956
 O          4.0713110774        3.1532447203        0.0262749265
 O          3.4235705886        1.2779633868        1.4673060801
 C          1.5095847652        2.7078420890        0.2979663507
 C          0.8607278305        2.8584335458        1.5068538693
 C         -0.3795682094        3.4765387885        1.5299737629
 C         -0.9474516572        3.9276400359        0.3485550364
 C         -0.2888005275        3.7559821376       -0.8594608057
 C          0.9549750819        3.1464916924       -0.8881368998
 H          1.4996927334        3.0045806377       -1.8067411650
 H         -0.7385921118        4.0995688560       -1.7770492860
 H         -1.9108203440        4.4116693510        0.3698098218
 H         -0.8944192637        3.6038184561        2.4691442595
 H          1.3337364447        2.4861638148        2.4018317075
 H          4.0578450367        1.3557570623       -1.6597503741
 H          4.6205259520       -0.8234203386       -2.2988969957
 H          4.1395954278       -3.2366427358       -2.1213246016
 H          2.2785782159       -4.0330152847       -0.7388519015
 C          0.4859111895       -2.4946003260        0.7101598157
 H          0.6361326599       -2.0734531514        1.7154059650
 C          0.3242485986       -3.9960794965        0.8321044936
 C          1.1733988754       -4.7682902062        1.7957442774
 C         -0.2834024971       -4.5616275415        2.0791930064
 H         -0.9521459829       -5.4046399527        1.9900854545
 H         -0.5622551882       -3.8639786985        2.8553260232
 H          1.8886177043       -4.2135185901        2.3841957040
 H          1.5051238072       -5.7565688664        1.5154488833
 H          0.0575969173       -4.4659261447       -0.1082036578
 O         -1.2425319119       -0.8412596427        2.2701816395
