  62
        -98.94397277
 C         -1.7411150106       -1.4509185893        0.4945803501
 C         -2.5683093105       -0.9421074487       -0.5370556197
 C         -3.4257455799        0.1959075316       -0.1659245193
 C         -3.3391114595        0.7195092813        1.0697003408
 C         -4.1293221189        1.8962875815        1.5635038311
 C         -3.3904633784        3.2187321413        1.3170792013
 C         -2.8627050485        3.3729240113       -0.1089188687
 H         -2.3834714181        4.3522865711       -0.1715525186
 H         -2.0941118589        2.6182416510       -0.2876396290
 C         -3.9356391687        3.2571515520       -1.2000594886
 H         -3.7862408784        4.0584087021       -1.9266951885
 H         -4.9260958086        3.3964570324       -0.7652475184
 C         -3.9028968994        1.9390163222       -1.9756120589
 H         -4.5448627695        2.0455530427       -2.8540589588
 H         -2.8881884495        1.7472427118       -2.3328787091
 C         -4.3846112098        0.7017935422       -1.2074873691
 H         -5.3615921097        0.9025815326       -0.7625804989
 H         -4.4974202603       -0.1118493776       -1.9298141792
 H         -2.5449732083        3.2775235507        2.0067667912
 H         -4.0702753780        4.0409693815        1.5477629516
 H         -5.0953277290        1.9105419321        1.0621734613
 H         -4.2905688488        1.7744457814        2.6361118011
 O         -2.4773678796        0.2517565007        2.0095472406
 C         -1.6675596501       -0.8385121296        1.7488245402
 O         -0.9311374202       -1.1669288102        2.7020705901
 H          1.4289923693       -1.9472948810        1.5231030596
 C          1.5192076592       -1.8304903208        0.4511613896
 C          0.4435129790       -2.1713317201       -0.3579334003
 C          0.5543096589       -1.9811657599       -1.7304996803
 C          1.7213714890       -1.4717635903       -2.2726468604
 C          2.7938830493       -1.1369643909       -1.4643730004
 C          2.6859933994       -1.3122568412       -0.0909130405
 N          3.7578972897       -0.9461020118        0.7445356295
 S          4.4261140103        0.5662357779        0.4875225197
 O          5.3899777701        0.4904749377       -0.5818949004
 O          4.9456973807        0.9812575574        1.7714973797
 C          3.0653335107        1.6105520086       -0.0072644199
 C          3.1301685209        2.2981749888       -1.2018240898
 C          2.0596567412        3.0938641494       -1.5771352494
 C          0.9453488213        3.1832221997       -0.7578877093
 C          0.8953324112        2.4858679495        0.4394459606
 C          1.9639997409        1.6923848189        0.8218742103
 H          1.9438636108        1.1416724788        1.7494076802
 H          0.0267731113        2.5478329498        1.0767034707
 H          0.1094412916        3.7981642302       -1.0518291990
 H          2.0948620913        3.6378650296       -2.5071304493
 H          4.0129872307        2.1940943286       -1.8113985199
 H          3.5711053297       -1.0927415720        1.7261097295
 H          3.7085778394       -0.7385946513       -1.8730120205
 H          1.7965525190       -1.3291683101       -3.3398079903
 H         -0.2880639713       -2.2067199494       -2.3644330003
 C         -0.8272180612       -2.6531216997        0.2983758097
 H         -0.5674521712       -2.9945983200        1.3096248796
 C         -1.4830423718       -3.8027348192       -0.4359969604
 C         -0.8501415724       -5.1585131895       -0.3603150408
 C         -2.1400870122       -4.8923660591        0.3544675694
 H         -3.0462643424       -5.3339856286       -0.0321780306
 H         -2.1198066920       -4.8143520293        1.4321123494
 H         -0.8680484628       -5.7856098893       -1.2382610609
 H          0.0466289277       -5.2590334801        0.2328036590
 H         -1.9553951418       -3.5170348688       -1.3655490903
 O         -2.6153684709       -1.4039841285       -1.7057993098
