  62
        -98.94414403
 C         -2.5421365776        1.1443793681        0.0791839564
 C         -3.2133594095        0.3653048607       -0.8927856946
 C         -3.9891146923       -0.7692329397       -0.3798852297
 C         -4.0351766919       -1.0012969189        0.9449783860
 C         -4.8014748907       -2.1041272915        1.6238808826
 C         -4.0542396946       -3.4439250266        1.6721146435
 C         -3.9529628256       -4.1799793241        0.3355686001
 H         -3.5999631539       -5.1903343121        0.5511436942
 H         -4.9461854875       -4.2693244846       -0.1053285504
 C         -2.9971147788       -3.5290559143       -0.6741896369
 H         -2.3388705576       -2.8295869533       -0.1527570302
 H         -2.3590483976       -4.2957756511       -1.1199412087
 C         -3.6913788760       -2.7948452484       -1.8217225203
 H         -4.2511836196       -3.5099594463       -2.4284864013
 H         -2.9229850017       -2.3458192262       -2.4571794397
 C         -4.6461043728       -1.6804162154       -1.3725366707
 H         -4.9120044374       -1.0834999560       -2.2484161646
 H         -5.5550576815       -2.1105600182       -0.9529079788
 H         -3.0515633391       -3.2701699932        2.0694607613
 H         -4.5844247244       -4.0878393548        2.3773648523
 H         -4.9792363876       -1.7724563752        2.6490014653
 H         -5.7639842999       -2.2400855440        1.1302001256
 O         -3.3801953468       -0.2248737111        1.8477937725
 C         -2.5951351358        0.8451880384        1.4409284925
 O         -2.0154244331        1.4367896969        2.3698462746
 H         -0.3173193977        0.1088452993       -0.8922859735
 C          0.3074973837        0.8405551136       -0.3935862372
 C         -0.2434426078        2.0665525455       -0.0388727768
 C          0.5735935456        3.0020218199        0.5809759691
 C          1.8975124751        2.7030393024        0.8552735638
 C          2.4352089826        1.4754341724        0.5168312657
 C          1.6314838393        0.5371034486       -0.1183557072
 N          2.1655009373       -0.7175185792       -0.4619728461
 S          3.6078138801       -0.7561798582       -1.3224766007
 O          3.7714364848        0.4281759565       -2.1330987610
 O          3.5932441332       -2.0201775618       -2.0260812890
 C          4.8599062173       -0.8115052193       -0.0583743295
 C          5.8681681125        0.1321717920       -0.0439299477
 C          6.8379141562        0.0609668271        0.9442472950
 C          6.7827037267       -0.9474203715        1.8941331077
 C          5.7645380905       -1.8889029374        1.8640888788
 C          4.7929813657       -1.8242598248        0.8782724664
 H          3.9879359599       -2.5375692270        0.8173662835
 H          5.7242930441       -2.6712990989        2.6047943189
 H          7.5370637067       -1.0000108663        2.6631986369
 H          7.6301950417        0.7916992312        0.9696200886
 H          5.8672882576        0.9011505510       -0.7999119170
 H          1.4912346131       -1.3439212807       -0.8773283279
 H          3.4635860488        1.2379733890        0.7346916875
 H          2.5188123129        3.4374374556        1.3446108761
 H          0.1733966690        3.9641015811        0.8548054124
 C         -1.6932816427        2.3166934731       -0.3775103433
 H         -1.7840675231        2.3314581886       -1.4745161189
 C         -2.2349175325        3.6188891052        0.1719260061
 C         -2.0237967227        4.8991630794       -0.5779595316
 C         -3.3851825219        4.2753086313       -0.5288922709
 H         -4.1506253637        4.7482326780        0.0677439253
 H         -3.7620894464        3.7953411154       -1.4204618159
 H         -1.8564656457        5.8050196051       -0.0151864716
 H         -1.4771291542        4.8497187718       -1.5076529935
 H         -2.2265075519        3.6496040587        1.2554137213
 O         -3.1618969037        0.6033060450       -2.1306543636
