  62
        -98.94443236
 C          1.8438132581        1.0733340790       -0.1438725385
 C          2.3546701808       -0.0428060756       -0.8491551116
 C          3.8173613778       -0.1752744731       -0.8521207899
 C          4.5761996101        0.7521192246       -0.2403027525
 C          6.0795837462        0.7652615052       -0.1774029207
 C          6.6642603855       -0.0988122183        0.9484455776
 C          6.5718854610       -1.6088998916        0.7253844168
 H          6.9855358360       -1.8568681125       -0.2526144759
 H          7.2064862003       -2.0828545193        1.4768987236
 C          5.1526290920       -2.1815712552        0.8463990734
 H          4.5116604868       -1.4626433159        1.3617598459
 H          5.1754441862       -3.0857812004        1.4587891512
 C          4.5029448218       -2.5543166076       -0.4863691137
 H          3.4882396988       -2.9086656142       -0.2864080941
 H          5.0601315543       -3.3713417852       -0.9503054308
 C          4.4092790064       -1.3962571260       -1.4884908944
 H          5.3931253087       -1.1743638692       -1.9014770625
 H          3.7470126421       -1.7004344720       -2.3028929450
 H          7.7188272124        0.1678841073        1.0491953382
 H          6.1647974170        0.1622825509        1.8842590774
 H          6.4894112410        0.4436021849       -1.1351739951
 H          6.3742802273        1.8023710784       -0.0034326593
 O          4.0450894674        1.8289956081        0.3980249008
 C          2.6729026631        2.0029745545        0.4832621803
 O          2.3206424258        3.0073027088        1.1344910632
 O          1.6327918711       -0.8847800284       -1.4440132170
 C          0.3432545010        1.2896811409       -0.0568279337
 C         -0.3184926932        0.0628590360        0.5205089521
 C          0.1970878541       -0.4805025161        1.6955113982
 C         -0.3545843808       -1.6168286348        2.2520033734
 C         -1.4444057064       -2.2289395650        1.6574500810
 C         -1.9747080459       -1.6888696079        0.4928044459
 C         -1.4187622184       -0.5433909737       -0.0642230631
 H         -1.8395117955       -0.1584021266       -0.9777855380
 N         -3.0732466792       -2.2944476277       -0.1310825734
 S         -4.2310032759       -1.3822894755       -0.9071432176
 O         -5.4040454982       -2.2306212892       -0.9209128901
 O         -3.7597464103       -0.9462519824       -2.1972174563
 C         -4.5200274684        0.0303100272        0.1453493964
 C         -4.7562787856       -0.1765668945        1.4903126338
 C         -4.9904855678        0.9186108064        2.3055771969
 C         -4.9900736651        2.1958967518        1.7656896100
 C         -4.7599531561        2.3865824057        0.4124189483
 C         -4.5215198464        1.2943315652       -0.4065844706
 H         -4.3323350251        1.3978762154       -1.4625772511
 H         -4.7629038610        3.3795899238       -0.0083092311
 H         -5.1713916983        3.0472218894        2.4027312448
 H         -5.1718723140        0.7737836028        3.3584077611
 H         -4.7594653697       -1.1800512532        1.8832147192
 H         -3.4685315750       -3.0830327178        0.3582228509
 H         -1.8719252039       -3.1237507624        2.0834834944
 H          0.0649025433       -2.0312012858        3.1563762649
 H          1.0505017277       -0.0029100707        2.1580325192
 H          0.1953713625        2.1229524386        0.6457684190
 C         -0.1961798479        1.6960541396       -1.4119478695
 C         -1.3973985191        2.5850463417       -1.5131972762
 C         -0.0388904016        3.1201826184       -1.8502110405
 H          0.1980615737        3.3190481744       -2.8846865125
 H          0.4323298870        3.8005747602       -1.1556560581
 H         -2.0928327073        2.4133176019       -2.3210432173
 H         -1.8573071904        2.9097755647       -0.5922135497
 H         -0.0657392150        0.9247257617       -2.1629850406
