  62
        -98.93616953
 C          2.1303034172        1.3719870145        0.3191183463
 C          1.7911321444        0.3522793511       -0.6016915273
 C          2.6343182973       -0.8612630979       -0.5772662526
 C          3.6280627155       -0.9661853582        0.3235533417
 C          4.6717309472       -2.0421846246        0.5406152320
 C          4.5241254691       -3.4185639239       -0.1027558467
 C          3.3618853305       -4.2530672192        0.4340300469
 H          3.2951247327       -5.1681368590       -0.1583475616
 H          3.5856693624       -4.5403700761        1.4646027077
 C          2.0013427417       -3.5606308978        0.4325904797
 H          1.2670701970       -4.2629925053        0.8373336299
 H          2.0273676005       -2.7017610809        1.1072680613
 C          1.5029507906       -3.1049211320       -0.9374659622
 H          0.4612870442       -2.7964832386       -0.8179791457
 H          1.5219548843       -3.9473454328       -1.6314375735
 C          2.2726377754       -1.9307642387       -1.5679831320
 H          3.1589909320       -2.2780735827       -2.0937492602
 H          1.6207305781       -1.4538367434       -2.3056470780
 H          4.4591750229       -3.3256773165       -1.1828041253
 H          5.4477385114       -3.9625282687        0.1129176964
 H          5.6197029977       -1.6049345851        0.2073735751
 H          4.7545787637       -2.1616332314        1.6257587748
 O          3.8764687812        0.0211517089        1.2345383309
 C          3.1435364977        1.1946647091        1.2621564689
 O          3.4771336298        1.9839525808        2.1687622488
 H         -0.0203693115        0.9592366475        1.8368800170
 C         -0.6717482079        1.4999382779        1.1600979454
 C         -0.1201584263        2.4420909090        0.3002625372
 C         -0.9676684974        3.1167964590       -0.5686857311
 C         -2.3285178697        2.8614904393       -0.5625899090
 C         -2.8726342645        1.9219172791        0.2926534761
 C         -2.0296133070        1.2232210967        1.1483688709
 N         -2.5590587784        0.2339912014        1.9916819833
 S         -3.7767996730       -0.7554717085        1.4150882557
 O         -5.0517547552       -0.1086078639        1.6105911082
 O         -3.6017700899       -2.0086866496        2.1179689566
 C         -3.4943147353       -0.9788969467       -0.3338717207
 C         -2.2197482731       -1.2518261311       -0.7874169324
 C         -2.0140685451       -1.4223494169       -2.1463853020
 C         -3.0827834875       -1.3316362099       -3.0242471386
 C         -4.3595873794       -1.0685163200       -2.5530096115
 C         -4.5689020958       -0.8851526976       -1.1958207221
 H         -5.5411132410       -0.6621119969       -0.7867701486
 H         -5.1894854817       -0.9984145183       -3.2376519953
 H         -2.9157914776       -1.4633599186       -4.0815830840
 H         -1.0153559738       -1.6025986386       -2.5096430529
 H         -1.3966921215       -1.3081854750       -0.0924325024
 H         -1.8655648329       -0.2943237486        2.4994999512
 H         -3.9309603246        1.7162824918        0.3111526307
 H         -2.9749877241        3.3983063818       -1.2397223906
 H         -0.5640673443        3.8334572389       -1.2641235496
 C          1.3683408703        2.6842185738        0.3808748634
 H          1.5810394220        3.0861684908        1.3861549257
 C          1.8617039511        3.7266693876       -0.6131923652
 C          3.2484103841        3.6679321205       -1.1794535080
 C          2.0672415191        3.4053110941       -2.0620059547
 H          1.8023882906        4.1515195179       -2.7966583693
 H          1.8747144250        2.3922721556       -2.3769022935
 H          3.7893648117        4.5946295438       -1.3004818320
 H          3.8742169753        2.8341825294       -0.8950984738
 H          1.4868532438        4.7184455067       -0.3803160459
 O          0.8402494439        0.4344352033       -1.4187237256
