  62
        -98.93410720
 C         -2.4528955431       -1.1617797018       -0.0136482906
 C         -2.5463990849        0.0093414922       -0.8001013098
 C         -3.9020961585        0.5562061076       -0.9951768508
 C         -4.9496967235       -0.0775459312       -0.4402391050
 C         -6.3920465693        0.3467278907       -0.4647352098
 C         -6.7339369975        1.1722360985        0.7874567567
 C         -6.4610242637        2.6710403092        0.6662271460
 H         -7.1942972390        3.1151086448       -0.0102223239
 H         -6.6182581963        3.1104243933        1.6539591860
 C         -5.0585875169        3.0460163944        0.1796703204
 H         -4.3147786488        2.4185517227        0.6744569431
 H         -4.8638325734        4.0764938866        0.4831623754
 C         -4.9002813958        2.9399780346       -1.3443760050
 H         -4.4758391894        3.8696633731       -1.7288447668
 H         -5.8860308685        2.8390041789       -1.7982337603
 C         -3.9888916720        1.8033390769       -1.8319422060
 H         -4.2817912116        1.5216028556       -2.8488970428
 H         -2.9571704635        2.1641769532       -1.8931420229
 H         -7.7931758200        1.0391812395        1.0164162072
 H         -6.1645457426        0.7605598390        1.6247431195
 H         -6.6161612042        0.8977433517       -1.3731170544
 H         -6.9867717203       -0.5688806929       -0.4510726536
 O         -4.8141165950       -1.2126495503        0.3003877947
 C         -3.5752394575       -1.7757581542        0.5405458781
 O         -3.6013602478       -2.8004341399        1.2522954252
 O         -1.5478451971        0.5817007914       -1.3111268631
 C         -1.0960669012       -1.7847558008        0.2609939279
 C         -0.1998498113       -0.7745361641        0.9355246606
 C         -0.6543348570       -0.1528747385        2.0965693704
 C          0.1252149620        0.7814380507        2.7492443876
 C          1.3789541632        1.1097877375        2.2638033632
 C          1.8410928525        0.4973696210        1.1052600550
 C          1.0549692287       -0.4429746313        0.4522678479
 H          1.4397089178       -0.9026582463       -0.4422519247
 N          3.0935749138        0.8400995059        0.5726608246
 S          3.9952148215       -0.3236358055       -0.2487009009
 O          3.5073610801       -0.4382420130       -1.5996719049
 O          4.0450317754       -1.5478020250        0.5194170614
 C          5.5924701310        0.4698423869       -0.2539643123
 C          6.5454973462        0.0929397700        0.6731155120
 C          7.7714714321        0.7398828886        0.6751781438
 C          8.0207579581        1.7492760017       -0.2423701646
 C          7.0544546776        2.1161928053       -1.1675452761
 C          5.8274437272        1.4723755597       -1.1762273002
 H          5.0497766802        1.7167143636       -1.8811541031
 H          7.2528481230        2.8996521025       -1.8810661759
 H          8.9751097823        2.2517447114       -0.2386439173
 H          8.5260394761        0.4546752214        1.3904348294
 H          6.3093174817       -0.7020001102        1.3620687608
 H          3.6646906673        1.3714463902        1.2152867358
 H          1.9888612169        1.8412508616        2.7718192830
 H         -0.2425175459        1.2554023512        3.6470637698
 H         -1.6334084712       -0.4141135496        2.4764963369
 H         -1.2757882568       -2.6066572296        0.9701052546
 C         -0.5116403647       -2.3617744685       -1.0105070491
 C          0.4881057297       -3.4751452377       -0.9378020391
 C         -0.9005481026       -3.7453587911       -1.4323399051
 H         -1.0448637835       -3.9424492751       -2.4839504900
 H         -1.5770844598       -4.2880198163       -0.7879704154
 H          1.3033207776       -3.4811481489       -1.6461906203
 H          0.7614011599       -3.8375913771        0.0420208762
 H         -0.3871736693       -1.6178429867       -1.7897341715
