  62
        -98.94367608
 C          1.7827405158        0.3766211908       -0.3083923510
 C          2.9668910419        0.7654391486       -0.9781036448
 C          4.2089379845        0.6572809597       -0.2013898218
 C          4.1517497718        0.2270440918        1.0725746943
 C          5.3437823776        0.0232068367        1.9614188152
 C          5.8810419859       -1.4106276028        1.8516095904
 C          6.0840461594       -1.8854897089        0.4128420490
 H          6.4940140750       -2.8967117600        0.4587020734
 H          5.1117810509       -1.9547345449       -0.0801509250
 C          7.0128905014       -0.9950618440       -0.4242466723
 H          7.6117224331       -0.3628603989        0.2323833022
 H          7.7044785225       -1.6331077563       -0.9784974521
 C          6.2940125021       -0.1195261001       -1.4523277971
 H          7.0451790656        0.2985218376       -2.1278803319
 H          5.6215930975       -0.7368973040       -2.0533143331
 C          5.4887824174        1.0547597589       -0.8817898924
 H          5.1958661405        1.6944092439       -1.7196981945
 H          6.1185352810        1.6396340432       -0.2081066555
 H          6.8276391594       -1.4665697651        2.3922254690
 H          5.1714060253       -2.0840889123        2.3375018456
 H          5.0391319146        0.2095845589        2.9925823256
 H          6.1203267966        0.7350393932        1.6881958633
 O          2.9924877123       -0.1183457836        1.6882278350
 C          1.7796714548       -0.0581820420        1.0171622497
 O          0.7976291735       -0.4085593991        1.6970147487
 O          2.9829787186        1.1895208499       -2.1656364001
 C          0.4596866284        0.4562944543       -1.0475305076
 C         -0.4838461852        1.3876833023       -0.3278963452
 C         -0.0227578795        2.6420045553        0.0654538093
 C         -0.8503612595        3.5204234746        0.7358494428
 C         -2.1602180449        3.1732865893        1.0181441929
 C         -2.6344219451        1.9298587722        0.6208101252
 C         -1.7972879759        1.0467248003       -0.0487773593
 H         -2.1846584583        0.0889061926       -0.3512585044
 N         -3.9477848077        1.5399716559        0.9132134052
 S         -4.8206971651        0.5928239281       -0.1486836732
 O         -4.5319757229        0.9250312457       -1.5243811569
 O         -6.1977132212        0.7634318310        0.2646898088
 C         -4.3180172518       -1.0795550173        0.1981162024
 C         -4.2569816364       -1.9833303531       -0.8442600620
 C         -3.9016695226       -3.2957217454       -0.5753348157
 C         -3.6161769280       -3.6796646391        0.7256782580
 C         -3.6860363574       -2.7607938411        1.7616546401
 C         -4.0439314869       -1.4479534382        1.5000229887
 H         -4.0999447490       -0.7089632873        2.2816986399
 H         -3.4588196639       -3.0617469941        2.7717388643
 H         -3.3356654473       -4.7003415296        0.9331657492
 H         -3.8465353004       -4.0121399165       -1.3797261594
 H         -4.4771310230       -1.6380805323       -1.8421693504
 H         -4.5192644555        2.2400452362        1.3621998084
 H         -2.8078646556        3.8576169500        1.5447765976
 H         -0.4759783355        4.4868360733        1.0387901317
 H          0.9994815998        2.9161703274       -0.1577882667
 H          0.6964218643        0.9020297705       -2.0255882862
 C         -0.1048584062       -0.9312094554       -1.2688442141
 C         -1.0004931434       -1.2059562428       -2.4384475664
 C          0.3985769383       -1.7421165560       -2.4237772184
 H          0.5429840126       -2.8029219641       -2.2853183712
 H          1.1312952987       -1.2817803227       -3.0705774588
 H         -1.8165603493       -1.9000054197       -2.3067150707
 H         -1.2277670730       -0.3828449422       -3.0992665951
 H         -0.3038538392       -1.4526353438       -0.3388928541
