  62
        -98.93781599
 C         -2.3214806576       -1.3676115911        0.0069470811
 C         -3.0282120358       -0.5633902456        0.9313310460
 C         -3.7573188105        0.5804163421        0.3686511118
 C         -3.7135900068        0.8094381980       -0.9563531959
 C         -4.4367988306        1.8979215645       -1.7047062831
 C         -3.9993308781        3.3432621105       -1.3970744661
 C         -4.8359536704        4.0412762175       -0.3174438430
 H         -4.9965111024        5.0791760574       -0.6158318764
 H         -5.8190634463        3.5707899973       -0.2771597929
 C         -4.2252452293        4.0710453287        1.0868712759
 H         -5.0112144577        4.3609419587        1.7874441649
 H         -3.4513309202        4.8413910260        1.1230839431
 C         -3.5915747564        2.7653592825        1.5675190735
 H         -2.6267534166        2.6235138975        1.0726465620
 H         -3.3784020975        2.8623335425        2.6341557916
 C         -4.4481769919        1.5066263490        1.3269686708
 H         -4.5703213530        0.9556164533        2.2616108572
 H         -5.4347412064        1.7781724273        0.9550745280
 H         -4.1024672121        3.9081213375       -2.3250039287
 H         -2.9420693914        3.3550494428       -1.1309684912
 H         -4.2581005289        1.6901691066       -2.7616255102
 H         -5.5087457630        1.7974862439       -1.5201953008
 O         -3.0074026933        0.0197405130       -1.8107153268
 C         -2.2762551629       -1.0676430698       -1.3548834500
 O         -1.6531820493       -1.6746838231       -2.2454089864
 H         -0.1873790419       -0.4253163869        1.3493660312
 C          0.4663806601       -1.0925903028        0.8000949838
 C         -0.0531476069       -2.2802349577        0.2976230567
 C          0.7934711359       -3.1272498053       -0.4034038175
 C          2.1182587223       -2.7791157151       -0.6077006310
 C          2.6270856250       -1.5916640404       -0.1152341800
 C          1.7900500669       -0.7407710877        0.5955345341
 N          2.2994490747        0.4694173147        1.1079267881
 S          2.9828101088        1.5308465546       -0.0042808447
 O          2.8543499083        2.8418567698        0.5955624449
 O          2.4052189381        1.3671354000       -1.3188759027
 C          4.7010403675        1.0662815404       -0.0215863268
 C          5.3068220491        0.7077657103       -1.2096103495
 C          6.6469692150        0.3526259539       -1.1969692303
 C          7.3525131825        0.3623646619       -0.0034600684
 C          6.7292487560        0.7269735857        1.1809274087
 C          5.3905809864        1.0846076834        1.1751937502
 H          4.8686976083        1.3775381136        2.0708273716
 H          7.2811884653        0.7332161279        2.1069455524
 H          8.3944882543        0.0839566038        0.0034419067
 H          7.1329158742        0.0690660321       -2.1166886852
 H          4.7151805303        0.7079366304       -2.1113193122
 H          1.6343939880        0.9638167169        1.6863844774
 H          3.6558844262       -1.3153900962       -0.2795654582
 H          2.7633868517       -3.4428743340       -1.1627482632
 H          0.4135946503       -4.0525524565       -0.8035552707
 C         -1.5204453982       -2.5498971478        0.5254298955
 H         -1.6992713478       -2.5683861456        1.6106717000
 C         -2.0108307733       -3.8498806982       -0.0727056165
 C         -1.7873223557       -5.1398889137        0.6567864045
 C         -3.1642872412       -4.5551917954        0.5732859245
 H         -3.8938306661       -5.0360187521       -0.0608115505
 H         -3.5864715260       -4.1071859153        1.4610347370
 H         -1.5725934756       -6.0272167302        0.0809858894
 H         -1.2741856879       -5.0938601634        1.6052859420
 H         -1.9648596942       -3.8559784690       -1.1555456255
 O         -3.0483808466       -0.7898805868        2.1720965675
