  62
        -98.93853755
 C         -2.4011125211       -1.1845305906       -0.0709977633
 C         -3.5013845567       -0.8172348140        0.7424246522
 C         -4.4430425373        0.1621554211        0.1768665561
 C         -4.2101172226        0.6667615333       -1.0468830961
 C         -5.0459034896        1.6411422479       -1.8392838849
 C         -5.6629471918        2.8269863496       -1.0866752561
 C         -4.8067830439        3.3819885578        0.0609790469
 H         -3.8023354812        2.9564659772        0.0186094698
 H         -4.7065849669        4.4621298182       -0.0612101019
 C         -5.4150984818        3.1193952213        1.4406502337
 H         -4.9836213087        3.8254074503        2.1542147148
 H         -6.4882557325        3.3166532575        1.3935848041
 C         -5.1882297852        1.7154134603        1.9991874782
 H         -4.1334163556        1.5858221392        2.2561868777
 H         -5.7574178309        1.6267477162        2.9275652957
 C         -5.5862103304        0.5601263866        1.0660211605
 H         -6.4760475317        0.8057110241        0.4918283120
 H         -5.8019230398       -0.3135461158        1.6869160669
 H         -5.8351173976        3.6118754788       -1.8252056563
 H         -6.6396896509        2.5439064690       -0.6970833815
 H         -5.8428013509        1.0783444768       -2.3345058822
 H         -4.3806845317        2.0118247291       -2.6231663310
 O         -3.1261698754        0.3005678486       -1.7882203348
 C         -2.1984795166       -0.6217663581       -1.3297581254
 O         -1.2716067142       -0.8474501427       -2.1327107036
 O         -3.6977012294       -1.2994692196        1.8890433115
 C         -1.4082160243       -2.1937739729        0.4823844230
 C         -0.1078216801       -1.4787922280        0.7517907165
 C          0.0315520649       -0.7401788270        1.9239876148
 C          1.1848170915       -0.0201993753        2.1712768057
 C          2.2202667604       -0.0130870283        1.2521763755
 C          2.0829103017       -0.7307907068        0.0723795080
 C          0.9320270601       -1.4718104558       -0.1640704152
 H          0.8346780122       -2.0145155423       -1.0908568216
 N          3.1224788119       -0.7248665990       -0.8729396280
 S          3.8438693724        0.7390329388       -1.2627114252
 O          2.9378903724        1.8519588804       -1.0952132638
 O          4.3930386702        0.5485998769       -2.5877529566
 C          5.1869315149        0.8622933682       -0.0977837049
 C          5.3502762468        2.0139815312        0.6467581398
 C          6.4091267742        2.0919327342        1.5383007080
 C          7.2821594461        1.0228375480        1.6679409718
 C          7.1060410608       -0.1259192072        0.9109195067
 C          6.0504369296       -0.2096645592        0.0172265764
 H          5.8799346320       -1.0827955801       -0.5900120288
 H          7.7865899694       -0.9555804687        1.0148002645
 H          8.1041744464        1.0852630977        2.3634100581
 H          6.5472258160        2.9845008393        2.1271819716
 H          4.6425099150        2.8174563524        0.5171669586
 H          2.9035056935       -1.2460378347       -1.7100590922
 H          3.1177026126        0.5556876074        1.4326252279
 H          1.2804071982        0.5440078866        3.0865696949
 H         -0.7848883054       -0.7291338767        2.6326975649
 H         -1.8281533352       -2.5131697066        1.4456693447
 C         -1.2695604571       -3.4059228606       -0.4142010391
 C         -0.6153649862       -4.6428173892        0.1226742440
 C         -2.0923758110       -4.6248707542       -0.1287305293
 H         -2.4817425879       -5.1888340166       -0.9631199560
 H         -2.7565031945       -4.5909109112        0.7223107825
 H          0.0116730800       -5.2230843053       -0.5367864211
 H         -0.2751341908       -4.6191054472        1.1467464531
 H         -1.1068483619       -3.1549867282       -1.4554560942
