  62
        -98.93287076
 C         -1.9082718010       -1.3605350220       -0.4596700279
 C         -2.8934717194       -1.2832267972        0.5558287170
 C         -4.0795978073       -0.4450396072        0.3003360352
 C         -4.1624025967        0.2063034854       -0.8741451679
 C         -5.2383428761        1.1465477505       -1.3502748377
 C         -5.1498278855        2.5319765779       -0.6916214040
 C         -4.9143963452        2.5112495599        0.8163123249
 H         -3.9849024797        1.9783968619        1.0259100922
 H         -4.7751230058        3.5449705952        1.1438843951
 C         -6.0466182864        1.9066995800        1.6435691259
 H         -6.9687085454        2.4572158441        1.4444459069
 H         -5.7920314510        2.0549652158        2.6960783996
 C         -6.3121964061        0.4150132420        1.4269604330
 H         -6.8761743266        0.2434988539        0.5140001770
 H         -6.9456404253        0.0747895217        2.2513047929
 C         -5.0641613297       -0.4617053898        1.4448009843
 H         -4.4832417979       -0.2437581762        2.3481713388
 H         -5.3739059524       -1.5085325359        1.5487303712
 H         -4.3180944978        3.0720795684       -1.1512779629
 H         -6.0689716422        3.0776381890       -0.9122030429
 H         -5.0960724860        1.2639783528       -2.4269732151
 H         -6.2178905960        0.7051397324       -1.1919494805
 O         -3.1904712123        0.1075814369       -1.8238191593
 C         -2.0452775372       -0.6610893281       -1.6587522293
 O         -1.2829349817       -0.6291062622       -2.6407627232
 O         -2.7889840210       -1.9029081062        1.6494032811
 C         -0.6967093133       -2.2180011638       -0.1393147267
 C          0.2889413237       -1.4377528087        0.6944080832
 C          0.8110313948       -1.9861291646        1.8611827020
 C          1.6975557229       -1.2709371039        2.6457739400
 C          2.0958223249       -0.0017981914        2.2673555001
 C          1.5830542159        0.5548440086        1.1014884507
 C          0.6778281269       -0.1563501383        0.3267059458
 H          0.2810432668        0.2953712656       -0.5707118260
 N          1.9871994991        1.8403421100        0.6730085066
 S          2.9988526903        1.8642252017       -0.6638802477
 O          3.3710816524        3.2499192018       -0.8432320376
 O          2.3540712376        1.2111154365       -1.7709135348
 C          4.4217957609        0.9231385997       -0.1368880612
 C          4.3737992590       -0.4548332686       -0.2115316769
 C          5.4467268575       -1.1886198064        0.2695424750
 C          6.5412367830       -0.5359531860        0.8159986896
 C          6.5746831811        0.8488037896        0.8829511238
 C          5.5031655405        1.5879555412        0.4078569761
 H          5.4867543901        2.6656268972        0.4349271148
 H          7.4288163703        1.3537366556        1.3046331042
 H          7.3736503827       -1.1109055104        1.1897962177
 H          5.4204439238       -2.2649898489        0.2157737622
 H          3.5094760017       -0.9274160625       -0.6496867483
 H          2.4090011216        2.3918932914        1.4085543964
 H          2.7913479000        0.5610705038        2.8718451799
 H          2.0854942303       -1.7060846593        3.5536347118
 H          0.4977585100       -2.9751246643        2.1609635493
 H         -1.0851744405       -3.0269779843        0.5013616304
 C         -0.0530194452       -2.8817803378       -1.3457495240
 C          1.1284259103       -2.3215226646       -2.0720034934
 C          1.2904104085       -3.5390134514       -1.2151380620
 H          1.4485045919       -4.4906851939       -1.6993034883
 H          1.8088119222       -3.4267994394       -0.2745379660
 H          1.1458248137       -2.4310123026       -3.1458880176
 H          1.5338621783       -1.3761435012       -1.7461735576
 H         -0.7901939638       -3.3893879444       -1.9601542405
