  62
        -98.93959702
 C         -2.4647283102       -0.2325092704        0.1962404792
 C         -3.5687762003       -0.1747661795        1.0791760391
 C         -4.7930401202        0.4295236602        0.5381325484
 C         -4.7913787400        0.9004988391       -0.7226310020
 C         -5.9830698698        1.4937954987       -1.4156941126
 C         -6.7799560299        0.4202371481       -2.1701885518
 C         -7.0939033202       -0.8195470111       -1.3327702007
 H         -7.6830623102       -1.4935196116       -1.9583842302
 H         -6.1604956303       -1.3349684710       -1.0953137302
 C         -7.8574305503       -0.5311439999       -0.0326745810
 H         -8.6646625304       -1.2596030697        0.0686611095
 H         -8.3171246901        0.4564818202       -0.0840889819
 C         -7.0080289304       -0.6285773389        1.2358334991
 H         -6.4717799605       -1.5808471789        1.2456371900
 H         -7.6809982205       -0.6233399480        2.0974382291
 C         -5.9898895202        0.4995086812        1.4445281482
 H         -6.4880287301        1.4668247612        1.3519883173
 H         -5.5994257904        0.4104664520        2.4626976284
 H         -7.7104613398        0.8673452179       -2.5246857522
 H         -6.1996177299        0.1072214373       -3.0411593714
 H         -6.6185535698        1.9826372194       -0.6797121231
 H         -5.6290505797        2.2396775080       -2.1293166833
 O         -3.7042150799        0.8466815982       -1.5339958519
 C         -2.5161009200        0.2757331685       -1.1016505212
 O         -1.6033385400        0.2824560376       -1.9487312812
 O         -3.5297448005       -0.6037777984        2.2644513994
 C         -1.1688758804       -0.8529292802        0.6830167099
 C         -0.0450990202        0.1528913896        0.6237392791
 C         -0.2592086701        1.4347249401        1.1239965079
 C          0.7465559600        2.3811956099        1.1007968372
 C          1.9923658301        2.0713095193        0.5841039676
 C          2.2232238399        0.7921633488        0.0992681287
 C          1.2099833798       -0.1596771510        0.1266521095
 H          1.4060533397       -1.1492988014       -0.2558554896
 N          3.4856749099        0.4686266182       -0.4273650509
 S          4.8399510099        1.0264974588        0.4153258488
 O          4.6503556698        0.8371240200        1.8359162889
 O          5.1196984302        2.3759165083       -0.0077329824
 C          6.1006030298       -0.0750121620       -0.1957961001
 C          6.4047172896       -1.2143306814        0.5252426509
 C          7.3671903695       -2.0818064919        0.0333459618
 C          8.0033869097       -1.7981561231       -1.1658885584
 C          7.6872140399       -0.6506883637       -1.8781033895
 C          6.7263301500        0.2215209069       -1.3917586303
 H          6.4544280902        1.1285337965       -1.9059545212
 H          8.1863175500       -0.4328161945       -2.8085011096
 H          8.7525246296       -2.4744659035       -1.5463255078
 H          7.6171063793       -2.9730641315        0.5861780026
 H          5.8918490395       -1.3893699005        1.4574581610
 H          3.5676729898       -0.5133246420       -0.6527754700
 H          2.7876752402        2.7991100092        0.5602158170
 H          0.5609817902        3.3721051603        1.4883040863
 H         -1.2307727701        1.6815807606        1.5307313876
 H         -1.3442489905       -1.1000838592        1.7412037101
 C         -0.8847421605       -2.1332492409       -0.0747339890
 C         -0.1275530807       -3.2501765804        0.5780813321
 C         -1.5994133307       -3.3857430904        0.3321473921
 H         -1.9353921807       -4.0619481910       -0.4395760474
 H         -2.2689475308       -3.3207810396        1.1774281720
 H          0.5459380693       -3.8397014410       -0.0258915973
 H          0.2039149592       -3.1019499296        1.5948312220
 H         -0.7386926104       -1.9627068018       -1.1356787491
