  62
        -98.93644398
 C         -2.4425895817       -1.0450870546       -0.6461677888
 C         -3.6016075687       -0.8809286348        0.1578845781
 C         -4.3859863650        0.3401242295       -0.0618863003
 C         -3.9840489982        1.2158154482       -1.0005229776
 C         -4.6532964560        2.5257865935       -1.2968511011
 C         -4.0533252311        3.6598846236       -0.4538394090
 C         -3.9455319348        3.3326586875        1.0356144077
 H         -3.2220154962        2.5255181087        1.1729640452
 H         -3.5393006920        4.2154756463        1.5339349940
 C         -5.2737510009        2.9386939110        1.6967481208
 H         -5.3594261701        3.4634661842        2.6505472565
 H         -6.1084057457        3.2615725103        1.0734603482
 C         -5.4139505005        1.4450476074        1.9965216288
 H         -4.5333510127        1.0959638850        2.5419086012
 H         -6.2789910329        1.3091943375        2.6511021421
 C         -5.6168222612        0.5364510847        0.7775047167
 H         -5.8894109851       -0.4570298989        1.1453898836
 H         -6.4404593437        0.9155653902        0.1690174716
 H         -3.0509412894        3.8775350863       -0.8295751098
 H         -4.6680430416        4.5516861810       -0.5886077917
 H         -4.5084670144        2.7547690796       -2.3539544439
 H         -5.7192810139        2.4353624707       -1.0972907676
 O         -2.8793376999        1.0213682056       -1.7619790433
 C         -2.0737866788       -0.0996960814       -1.6035168812
 O         -1.0902540745       -0.1132002477       -2.3684550428
 O         -3.9669369437       -1.7274523014        1.0166632499
 C         -1.6361374208       -2.3126509773       -0.4209525297
 C         -0.4757095570       -2.0655941797        0.5085757918
 C         -0.3060966777       -2.8210505331        1.6621599837
 C          0.7735134190       -2.5947692733        2.4991417713
 C          1.7039261222       -1.6146154720        2.2040163351
 C          1.5422289899       -0.8535313186        1.0531287234
 C          0.4586270947       -1.0805402044        0.2175526094
 H          0.3381421507       -0.4915452761       -0.6803852007
 N          2.4806190644        0.1571175963        0.7373848983
 S          4.0652966238       -0.3915288559        0.5054668861
 O          4.0976478882       -1.3900476942       -0.5416223816
 O          4.5953415383       -0.8005993800        1.7811079292
 C          4.8681638124        1.1034158079       -0.0340362401
 C          5.0370580193        1.3320133293       -1.3859714552
 C          5.6411400111        2.5104373815       -1.7955717041
 C          6.0591374247        3.4359674355       -0.8513046956
 C          5.8807289616        3.1924349741        0.5025271551
 C          5.2791184814        2.0156705468        0.9188096066
 H          5.1275290178        1.7793001078        1.9589086920
 H          6.2086732961        3.9142711232        1.2330199700
 H          6.5289776456        4.3518816578       -1.1733527334
 H          5.7823734633        2.7011139788       -2.8473310635
 H          4.7034717128        0.5815823061       -2.0851792245
 H          2.1935409833        0.6529818660       -0.0981824966
 H          2.5573917043       -1.4407302130        2.8384587356
 H          0.8931483727       -3.1892144684        3.3923421407
 H         -1.0312220864       -3.5842373976        1.9050650839
 H         -2.3325997689       -2.9920029916        0.0952346687
 C         -1.2225347519       -2.9915158814       -1.7211868398
 C          0.1959488260       -3.1591958727       -2.1700640795
 C         -0.5784410082       -4.3459873135       -1.6859266648
 H         -0.8928376032       -5.0908861671       -2.4010145826
 H         -0.3188050149       -4.7444011409       -0.7164080975
 H          0.3972177741       -3.0648441136       -3.2265735982
 H          0.9915303095       -2.7797962166       -1.5469124142
 H         -1.9493360648       -2.8239729958       -2.5099437608
