  62
        -98.93797539
 C         -1.8615328580       -1.5170606647        0.1036950028
 C         -2.1235487000       -0.5754833415        1.1295188059
 C         -3.1246298301        0.4671606503        0.8465778882
 C         -3.7115991416        0.5005186959       -0.3646190467
 C         -4.7971212879        1.3937781203       -0.9286540644
 C         -5.2420648794        2.6487021277       -0.1830083243
 C         -4.2045094013        3.7708087649       -0.1535462901
 H         -4.1180550955        4.1872994381       -1.1601876173
 H         -4.5722213193        4.5623893777        0.5028290596
 C         -2.8042537365        3.3601976113        0.2948709477
 H         -2.4030968454        2.6176248153       -0.3980770025
 H         -2.1648447958        4.2454580055        0.2344493154
 C         -2.7095452963        2.8146227670        1.7183214324
 H         -3.1368645427        3.5362520501        2.4175245761
 H         -1.6497876840        2.7024754398        1.9647046625
 C         -3.3832410149        1.4520678885        1.9511836512
 H         -2.9536117936        1.0145623522        2.8572956255
 H         -4.4512747351        1.5658522706        2.1215342827
 H         -6.1231815316        3.0280703802       -0.7075587063
 H         -5.5625736542        2.3941549920        0.8230225456
 H         -4.4657936295        1.6717526196       -1.9342259417
 H         -5.6686452902        0.7435619147       -1.0629320765
 O         -3.3943365199       -0.4013369392       -1.3368279521
 C         -2.4695292053       -1.4156056252       -1.1468543704
 O         -2.3008471155       -2.1285762625       -2.1534035038
 H          1.1743121341       -1.5386145398        1.7897034588
 C          1.4309827846       -1.6522672904        0.7449842086
 C          0.4996836183       -2.2030437955       -0.1244876359
 C          0.8265888826       -2.3112540574       -1.4717756035
 C          2.0637794230       -1.8902854877       -1.9259487074
 C          2.9953178516       -1.3524478821       -1.0547144731
 C          2.6712611759       -1.2265894405        0.2896205473
 N          3.6022583865       -0.6661071183        1.1814205288
 S          4.4010951161        0.7225198427        0.7018463577
 O          5.5069099175        0.3731827201       -0.1545111705
 O          4.7470666332        1.4047493448        1.9287228750
 C          3.2006784310        1.6665400619       -0.2219821879
 C          3.4720379600        2.0374347403       -1.5230127388
 C          2.5210836248        2.7583333049       -2.2274979797
 C          1.3186291487        3.0894622181       -1.6229067980
 C          1.0613854357        2.7103627496       -0.3143574201
 C          2.0095999553        1.9930044071        0.3956198631
 H          1.8329004577        1.6885713258        1.4151291814
 H          0.1236053000        2.9636980286        0.1537257639
 H          0.5755605483        3.6462239138       -2.1717702143
 H          2.7183085457        3.0557301940       -3.2448010885
 H          4.4175685158        1.7543537643       -1.9562509481
 H          3.2608339155       -0.5821058902        2.1277804122
 H          3.9660723481       -1.0297912734       -1.3947222842
 H          2.3071533393       -1.9811233133       -2.9735717655
 H          0.0955402767       -2.7024310135       -2.1614510146
 C         -0.8514341911       -2.6106907029        0.4113286314
 H         -0.7793208308       -2.6322065763        1.5072380728
 C         -1.2741444023       -3.9847398082       -0.0643431517
 C         -0.5827059053       -5.1865551774        0.5039253695
 C         -2.0033839628       -4.8918994348        0.8788522401
 H         -2.7844639950       -5.5242288316        0.4843127509
 H         -2.2024182807       -4.5249797194        1.8754071496
 H         -0.3849591833       -6.0233624352       -0.1479642803
 H          0.1834075667       -5.0176235947        1.2458189488
 H         -1.5677852709       -4.0168085997       -1.1047175341
 O         -1.5521557966       -0.6140318900        2.2532413684
