  62
        -98.94415446
 C         -2.2468302907       -0.8459123601        0.4069577503
 C         -2.4701259606       -0.0067862897       -0.7117652095
 C         -3.3262331202        1.1613400705       -0.4673917991
 C         -3.7956306300        1.4014955603        0.7702814110
 C         -4.6609888696        2.5624208104        1.1796977314
 C         -6.1582270897        2.3455707609        0.9201404315
 C         -6.5791159698        2.4037446714       -0.5488659185
 H         -7.6695611298        2.4548309417       -0.5672118683
 H         -6.2027540896        3.3237717714       -0.9971237183
 C         -6.1273801803        1.1983977415       -1.3853029088
 H         -6.9621522904        0.8452260819       -1.9948475788
 H         -5.8475729704        0.3778895313       -0.7204684890
 C         -4.9633374103        1.4855708114       -2.3338489789
 H         -4.7024801006        0.5565702715       -2.8469336191
 H         -5.2757916602        2.2108259717       -3.0883151986
 C         -3.7001597401        2.0143972109       -1.6416914488
 H         -2.8740945702        1.9742618308       -2.3558568789
 H         -3.8457929797        3.0488868208       -1.3315311186
 H         -6.6984751494        3.1252938209        1.4619929817
 H         -6.4504088599        1.3826250009        1.3454967613
 H         -4.5135228095        2.6967526801        2.2535805714
 H         -4.3288678094        3.4660763305        0.6678041916
 O         -3.5075588601        0.6004845099        1.8320937008
 C         -2.7469798705       -0.5473746402        1.6733068404
 O         -2.5766485206       -1.2004922906        2.7244803202
 H          0.1358860296       -0.1860778910        1.2455106502
 C          0.6468045694       -0.7181495009        0.4510870000
 C         -0.0136267110       -1.7539198006       -0.1987808502
 C          0.6595382687       -2.4398874105       -1.2007990404
 C          1.9493209188       -2.0794606308       -1.5518114204
 C          2.5949720491       -1.0363739911       -0.9146551902
 C          1.9366013794       -0.3522277912        0.0991588100
 N          2.5823850598        0.7151430585        0.7494623102
 S          4.1111477598        0.4358578179        1.3882028100
 O          4.2803189294       -0.9480071423        1.7675214096
 O          4.2648949102        1.4146617975        2.4425455702
 C          5.2164657798        0.8437945579        0.0534225800
 C          5.1195154901        2.1007971080       -0.5106011897
 C          5.9785717601        2.4379695981       -1.5442401797
 C          6.9165758398        1.5192307079       -1.9914558000
 C          7.0038975795        0.2628405477       -1.4118103404
 C          6.1466968695       -0.0814104023       -0.3780778704
 H          6.1733965392       -1.0481710924        0.0987924194
 H          7.7339358292       -0.4496766824       -1.7606427606
 H          7.5834535098        1.7845792479       -2.7965318400
 H          5.9137012003        3.4141864982       -1.9971567495
 H          4.3790871103        2.7857215782       -0.1321275795
 H          2.0001330900        1.1852751985        1.4274974704
 H          3.5964454192       -0.7490852013       -1.1902355303
 H          2.4576680385       -2.6171341207       -2.3374582706
 H          0.1735172684       -3.2553851102       -1.7103796106
 C         -1.4119977111       -2.1036812303        0.2520245099
 H         -1.3386627211       -2.5462021505        1.2570077298
 C         -2.1162491814       -3.0845265698       -0.6626095803
 C         -1.9280670518       -4.5596580199       -0.4804452707
 C         -3.2293833116       -3.9182560197       -0.1055744504
 H         -4.0950850117       -4.1032081693       -0.7236647503
 H         -3.4600491415       -3.7997733599        0.9436151197
 H         -1.9036263021       -5.1891676497       -1.3571122708
 H         -1.2774093419       -4.8865237503        0.3167199192
 H         -2.2343496714       -2.7014333695       -1.6695347402
 O         -1.9822080707       -0.2176277696       -1.8513297596
