  62
        -98.94335933
 C         -1.8798506902       -0.8340019410        0.6795100293
 C         -2.2432243203       -0.4321379194       -0.6286755002
 C         -3.6828927603       -0.4586015193       -0.9259552001
 C         -4.5443669002       -0.8818102306        0.0171015594
 C         -6.0373348202       -0.9069958406       -0.1342096805
 C         -6.6660652604        0.4028581487        0.3614114911
 C         -5.9957484206        1.6588460995       -0.1957678074
 H         -6.5406244108        2.5198560289        0.1976940937
 H         -4.9757829406        1.7207078891        0.1908811326
 C         -5.9603820407        1.7328306413       -1.7286681473
 H         -6.6929283207        1.0430839817       -2.1494266681
 H         -6.2494031509        2.7399311416       -2.0365923361
 C         -4.5887127107        1.4547042723       -2.3467184977
 H         -3.8339847108        2.0789894618       -1.8614407270
 H         -4.6259872908        1.7459321136       -3.3998077774
 C         -4.1144694205       -0.0030725977       -2.2913917495
 H         -4.8906754204       -0.6586110573       -2.6911257603
 H         -3.2290289205       -0.0882539468       -2.9279320497
 H         -7.7236933904        0.4024631288        0.0915744412
 H         -6.5936196303        0.4309910774        1.4512196311
 H         -6.2891834503       -1.0705323594       -1.1801017707
 H         -6.4294586401       -1.7349601314        0.4587982685
 O         -4.1522761001       -1.2928931320        1.2507127189
 C         -2.8169373901       -1.2625375222        1.6185222588
 O         -2.5953754399       -1.6342635036        2.7894310084
 O         -1.4122280004       -0.0673839882       -1.4999683598
 C         -0.4207688102       -0.8135229012        1.0937408492
 C          0.1711901396        0.5632325091        0.9099865909
 C         -0.5889209506        1.6847503786        1.2315980223
 C         -0.0755611708        2.9570136389        1.0749805538
 C          1.2183707192        3.1394711896        0.6197015639
 C          1.9945461793        2.0284175401        0.3180714926
 C          1.4682922095        0.7509807098        0.4574686110
 H          2.0873057797       -0.0967090498        0.2145358100
 N          3.3114354793        2.1753480009       -0.1439212374
 S          4.5113962395        1.1816637203        0.4682479314
 O          4.2377938896        0.7962234786        1.8329430409
 O          5.7405394293        1.9157032208        0.2509706022
 C          4.5140930596       -0.2515838884       -0.5876837204
 C          4.3020477695       -0.0920053068       -1.9427627702
 C          4.3564292497       -1.2071258258       -2.7636168715
 C          4.6304514099       -2.4539868164       -2.2219503530
 C          4.8473733900       -2.5964816780       -0.8602511432
 C          4.7887916599       -1.4856611090       -0.0327262519
 H          4.9378974999       -1.5536628303        1.0330727180
 H          5.0601097002       -3.5665979685       -0.4394929844
 H          4.6736319800       -3.3196591256       -2.8640028641
 H          4.1848771596       -1.1007829745       -3.8227137814
 H          4.0899041994        0.8899348536       -2.3311240790
 H          3.6285051191        3.1306918910       -0.2242014062
 H          1.6229486690        4.1331368798        0.4999985851
 H         -0.6840814309        3.8155861085        1.3171903649
 H         -1.5964355105        1.5450013480        1.6001529122
 H         -0.4038961801       -1.0466584325        2.1692977690
 C          0.3375592100       -1.8951548202        0.3506960379
 C          1.5005235501       -2.5889171108        0.9916385870
 C          0.2018189602       -3.3142652608        0.8115878362
 H          0.1454369403       -4.0954144499        0.0687188352
 H         -0.4127101097       -3.4935262019        1.6821272460
 H          2.3347704101       -2.8729212499        0.3680005366
 H          1.7802087501       -2.2817563920        1.9885244873
 H          0.3735736499       -1.7152122489       -0.7177469419
