  62
        -98.94489722
 C         -2.2125517200       -0.9903790013        0.5388613498
 C         -2.2985704201       -0.1129534911       -0.5694321600
 C         -3.1058364103        1.0962028687       -0.3606247898
 C         -3.6718141404        1.3262476884        0.8381361103
 C         -4.5057009406        2.5222902982        1.2103109105
 C         -5.9815585105        2.4042030081        0.8054091504
 C         -6.2587323805        2.5393039083       -0.6923683296
 H         -7.3377906905        2.6580493382       -0.8084304696
 H         -5.7889427706        3.4493579385       -1.0668407494
 C         -5.8016319603        1.3385714586       -1.5324651798
 H         -5.6339993202        0.4792398685       -0.8791999600
 H         -6.5939157502        1.0602936586       -2.2308941799
 C         -4.5382297003        1.5857101789       -2.3571492697
 H         -4.2841396302        0.6613824891       -2.8819689499
 H         -4.7336008304        2.3557310291       -3.1067392696
 C         -3.3174954104        2.0096564989       -1.5298804596
 H         -2.4299001604        1.9452997792       -2.1648861096
 H         -3.4299055006        3.0403409189       -1.1931819294
 H         -6.5255729407        3.1953404879        1.3264737806
 H         -6.3655334104        1.4458489779        1.1623235502
 H         -4.4530195506        2.6113841980        2.2976522605
 H         -4.0755707707        3.4211821383        0.7673334607
 O         -3.5265895403        0.4783543782        1.8917783701
 C         -2.8099212001       -0.7019589817        1.7648642599
 O         -2.7673530900       -1.3914262919        2.8046924797
 H          0.1275876099       -0.3692103812        1.4198308300
 C          0.6621721700       -0.9512732909        0.6779764299
 C          0.0058003301       -1.9956295209        0.0388182197
 C          0.7047468403       -2.7328271206       -0.9081525705
 C          2.0178549802       -2.4176310103       -1.2123618704
 C          2.6636009201       -1.3718201604       -0.5793971601
 C          1.9753506399       -0.6298572807        0.3716281800
 N          2.6248753698        0.4272902093        1.0333228902
 S          3.4401567496        1.5676777896        0.1073342405
 O          3.4476683294        2.7687469094        0.9148058407
 O          2.8768170296        1.6856930398       -1.2171437195
 C          5.0980120397        0.9237088299        0.0152332504
 C          5.7629364797        0.6703826897        1.1990493104
 C          7.0550194198        0.1725953599        1.1475148103
 C          7.6579742999       -0.0597598497       -0.0798340797
 C          6.9785271599        0.2033315304       -1.2593541997
 C          5.6852652198        0.7009691902       -1.2147347996
 H          5.1163637298        0.9163779103       -2.1053639996
 H          7.4490470399        0.0230036707       -2.2125234397
 H          8.6636530599       -0.4477273296       -0.1171289598
 H          7.5865846998       -0.0325437602        2.0627256203
 H          5.2596289897        0.8685719494        2.1306256904
 H          2.0487992397        0.8839273591        1.7257092703
 H          3.6833214300       -1.1186119402       -0.8188304801
 H          2.5463654803       -2.9956801801       -1.9549342805
 H          0.2185507404       -3.5495389406       -1.4158018807
 C         -1.4272020498       -2.2834118512        0.4186151496
 H         -1.4287108298       -2.7355219014        1.4216644995
 C         -2.1272233397       -3.2238709611       -0.5411751206
 C         -2.0365560194       -4.7074708811       -0.3523964010
 C         -3.3191367596       -3.9915226214       -0.0566150408
 H         -4.1544672295       -4.1254119914       -0.7274641709
 H         -3.6067263196       -3.8574202416        0.9763778792
 H         -1.9946157293       -5.3372304409       -1.2282685611
 H         -1.4571374994       -5.0710859412        0.4826329890
 H         -2.1600650497       -2.8342792609       -1.5523103206
 O         -1.7318253701       -0.3247886808       -1.6726554800
