  62
        -98.94472582
 C          1.5011965586        1.7698859043       -0.4806850408
 C          1.5354695878        0.5934566747       -1.2705304352
 C          2.7418017790       -0.2399010185       -1.1299926053
 C          3.7131368393        0.1302406376       -0.2783766012
 C          4.9648648692       -0.6511284701       -0.0048391692
 C          4.7776786642       -1.6169802345        1.1728455838
 C          3.5241106693       -2.4869331120        1.0729213910
 H          3.5271933451       -3.1615168231        1.9324650193
 H          2.6328895446       -1.8613496516        1.1678744839
 C          3.4188722136       -3.3083559881       -0.2192797821
 H          3.1027442435       -4.3215694026        0.0379963487
 H          4.3978299293       -3.3827959098       -0.6957397876
 C          2.3985873298       -2.7664316113       -1.2220678167
 H          2.2167875494       -3.5383763888       -1.9753672607
 H          1.4538139911       -2.5816490827       -0.7040121268
 C          2.8122913444       -1.4883800453       -1.9635434588
 H          3.8125289189       -1.6146990324       -2.3843577319
 H          2.1084395026       -1.3397718086       -2.7878770340
 H          5.6599250920       -2.2571976191        1.2358285750
 H          4.7150551038       -1.0328746123        2.0940661956
 H          5.7618423662        0.0536311116        0.2395806063
 H          5.2439555057       -1.2040393626       -0.8998078641
 O          3.6457874554        1.2631537555        0.4679882965
 C          2.5400909320        2.0927000100        0.3960463511
 O          2.6012490894        3.0902553529        1.1444807282
 O          0.6274312910        0.2401254391       -2.0648287503
 C          0.3290550617        2.7381714420       -0.4603646746
 C         -0.6415986468        2.3781346930        0.6379819267
 C         -1.2638552717        3.3627308439        1.3970421843
 C         -2.1533646147        3.0167294286        2.3989588075
 C         -2.4299760988        1.6891521045        2.6697576925
 C         -1.7970602469        0.6946096539        1.9296691341
 C         -0.9228014402        1.0480529437        0.9122350408
 H         -0.4294682441        0.2731383782        0.3507871978
 N         -2.0122822013       -0.6515836476        2.2291625738
 S         -1.6771481960       -1.9295933204        1.2137764416
 O         -2.1739656584       -3.0762009266        1.9453715937
 O         -0.2781658829       -1.9532817431        0.8745114217
 C         -2.7055160747       -1.6795073347       -0.2207589582
 C         -4.0579549979       -1.9212439352       -0.0614140906
 C         -4.9083617640       -1.7336394644       -1.1371315491
 C         -4.3939795922       -1.3109568587       -2.3543895180
 C         -3.0364336476       -1.0771698083       -2.4980037073
 C         -2.1777905072       -1.2584450261       -1.4231148793
 H         -1.1210044362       -1.0634692519       -1.5213638325
 H         -2.6282701512       -0.7490914169       -3.4403991116
 H         -5.0537527785       -1.1651459117       -3.1951496475
 H         -5.9647605848       -1.9181105555       -1.0261254881
 H         -4.4128280011       -2.2695150260        0.8949460601
 H         -2.7374178846       -0.8524393681        2.8990096801
 H         -3.1127210124        1.4195295645        3.4607056589
 H         -2.6318435491        3.7891730407        2.9816244972
 H         -1.0297944649        4.4011599607        1.2142810739
 H          0.7636573688        3.7175511896       -0.2009217552
 C         -0.3531576712        2.8885318550       -1.8133748075
 C         -1.6943604698        2.3026598162       -2.1233752492
 C         -1.5465101038        3.7845570221       -1.9686769125
 H         -1.6092212179        4.4062969339       -2.8488770508
 H         -1.9548432848        4.2363391622       -1.0780339654
 H         -1.8439101983        1.8928325350       -3.1097617507
 H         -2.1999677927        1.7522646779       -1.3446983455
 H          0.3667176463        2.8962204207       -2.6250142127
