  62
        -98.94751968
 C         -1.3170573833       -1.6453113189       -0.4967773957
 C         -1.1853694210       -0.3337412309       -1.0181385719
 C         -2.3735067022        0.5269477115       -0.8998560399
 C         -3.4931078440        0.0460535427       -0.3323955478
 C         -4.7625169797        0.8210263851       -0.1293491941
 C         -4.7952232780        1.4988113602        1.2466769758
 C         -3.5301589944        2.2916286407        1.5755642028
 H         -3.6858422585        2.7662562261        2.5472287412
 H         -2.6881972916        1.6038095593        1.6900628378
 C         -3.1625564414        3.3606239357        0.5376683156
 H         -2.8839305818        4.2757273145        1.0648703086
 H         -4.0297286161        3.5931474174       -0.0822573126
 C         -1.9785435825        2.9845581214       -0.3555366845
 H         -1.6410782083        3.8905917017       -0.8677759949
 H         -1.1572437695        2.6275053711        0.2724704471
 C         -2.2610541333        1.9278400388       -1.4316800512
 H         -3.1576791457        2.2025713455       -1.9918750457
 H         -1.4111839389        1.9181466718       -2.1204512350
 H         -4.9241225881        0.7286709078        2.0106970746
 H         -5.6610883548        2.1627646006        1.2836403938
 H         -4.8543573456        1.5677176475       -0.9156690438
 H         -5.6013517830        0.1261854483       -0.2005592551
 O         -3.5858257869       -1.2174162296        0.1551069455
 C         -2.5041631594       -2.0780758099        0.1020766057
 O         -2.7244609158       -3.2004612853        0.6028336645
 H          1.2462241341       -0.4589901353        0.0075348242
 C          1.4139015170       -1.2215872942        0.7490197576
 C          0.7514633415       -2.4353120225        0.6407763768
 C          0.9712906731       -3.4058207980        1.6110625511
 C          1.8275872931       -3.1573821746        2.6695713231
 C          2.4649610000       -1.9352634950        2.7892552038
 C          2.2494135480       -0.9587536270        1.8232550301
 N          2.8824187536        0.2902233637        1.8942566229
 S          2.0826158134        1.6593327130        1.3506335354
 O          2.7627970561        2.7553511831        2.0144622538
 O          0.6613265989        1.5793392217        1.5994515635
 C          2.4397768824        1.7651072933       -0.3905381659
 C          3.4289828365        0.9866503173       -0.9548506829
 C          3.6984183952        1.1270444550       -2.3070009337
 C          2.9844150940        2.0402033153       -3.0660445776
 C          2.0007614987        2.8210280546       -2.4810624045
 C          1.7264633027        2.6852807494       -1.1304706953
 H          0.9626947815        3.2673862484       -0.6408411466
 H          1.4414232158        3.5292332298       -3.0716220769
 H          3.1916145776        2.1410030925       -4.1199845754
 H          4.4609530884        0.5170650469       -2.7647047658
 H          3.9603587738        0.2748122124       -0.3449104407
 H          3.4057632750        0.4683731416        2.7385920668
 H          3.1194871297       -1.7349842721        3.6239681377
 H          1.9904822757       -3.9184266234        3.4177469448
 H          0.4522072356       -4.3506627010        1.5417152607
 C         -0.1955812205       -2.6748681477       -0.5101500091
 H         -0.6825072207       -3.6462007999       -0.3480263856
 C          0.5591473646       -2.7289388397       -1.8246159090
 C          1.3090850307       -3.9762224715       -2.1793798829
 C          0.0576226852       -3.6166493425       -2.9217104493
 H          0.1397289706       -3.2708664280       -3.9410169437
 H         -0.8348887645       -4.1943516194       -2.7281843663
 H          2.2546992447       -3.8798777910       -2.6898725350
 H          1.2652833129       -4.8019658068       -1.4853247317
 H          0.9910526395       -1.7792242919       -2.1104280430
 O         -0.1483494131        0.1173429092       -1.5727957145
