  62
        -98.94518363
 C          1.8136615006        1.4090117146       -0.0490609309
 C          2.9188093919        0.6988794976        0.4821774929
 C          3.3016761332       -0.5283312331       -0.2215661308
 C          2.6103272282       -0.9158932020       -1.3084661535
 C          2.8626088461       -2.1540953592       -2.1238963717
 C          2.1779566619       -3.4007380170       -1.5462703944
 C          2.8389883529       -3.9770649333       -0.2934462640
 H          2.4104755647       -4.9683946506       -0.1326059907
 H          3.9079308231       -4.1060266039       -0.4698494053
 C          2.6190903909       -3.1381625511        0.9734255938
 H          1.7743962095       -2.4617632764        0.8145966716
 H          2.3408825724       -3.7967436760        1.8005594684
 C          3.8406817733       -2.3358536639        1.4250572735
 H          3.5589417888       -1.7511955073        2.3050286804
 H          4.6383099747       -3.0222271608        1.7191875265
 C          4.3935282529       -1.3672239153        0.3710599386
 H          4.9162088617       -1.9194544026       -0.4094609005
 H          5.1024845320       -0.6959828365        0.8625505376
 H          1.1372458231       -3.1523012620       -1.3201572190
 H          2.1805584925       -4.1695862167       -2.3227054607
 H          3.9348945296       -2.3299598785       -2.2147758617
 H          2.4523835810       -1.9641455632       -3.1180050975
 O          1.5729831374       -0.1977970239       -1.8038717045
 C          1.0982007007        0.9280071480       -1.1486469039
 O          0.0665145520        1.4042585272       -1.6580401858
 O          3.5445669408        1.0655995353        1.5150072917
 C          1.2918730592        2.5974322170        0.7452893525
 C         -0.1717083721        2.3546987191        1.0119681583
 C         -1.1974308565        3.2116197388        0.6384348836
 C         -2.5206251185        2.8404427076        0.8121755075
 C         -2.8470991528        1.5995539263        1.3289804732
 C         -1.8257801277        0.7447760781        1.7207218550
 C         -0.5070862206        1.1381910794        1.5957370422
 H          0.2821474717        0.4558956023        1.8901695146
 N         -2.1529244484       -0.5787765098        2.1436665971
 S         -1.9568334233       -1.6484418834        0.8451940167
 O         -2.2884621377       -2.9586482420        1.3667416054
 O         -0.6389158598       -1.5388986093        0.2571424213
 C         -3.2177515141       -1.0924605747       -0.2739002499
 C         -4.5037732123       -1.5606490830       -0.0837141194
 C         -5.5152035954       -1.0922249346       -0.9058418410
 C         -5.2241065215       -0.1626563770       -1.8936021202
 C         -3.9283735312        0.2981006312       -2.0679864392
 C         -2.9086610958       -0.1673201228       -1.2509935041
 H         -1.8925494809        0.1818159043       -1.3608210660
 H         -3.6978124995        1.0241952833       -2.8309430087
 H         -6.0116451826        0.2065975357       -2.5315604795
 H         -6.5240065178       -1.4482924810       -0.7724481734
 H         -4.6769287084       -2.2822936615        0.6976345546
 H         -1.5598140453       -0.9018354079        2.8977738245
 H         -3.8722225529        1.2801270410        1.4230467151
 H         -3.3072166722        3.5138292567        0.5089553914
 H         -0.9606393900        4.1561157677        0.1765353619
 H          1.8328074673        2.5373696908        1.7052783121
 C          1.6005635389        3.9653941539        0.1611748489
 C          2.7914568944        4.1683390225       -0.7261381211
 C          1.4086960342        4.2892824133       -1.2889235463
 H          1.0486990164        5.2744870455       -1.5471934367
 H          1.0421884968        3.5053778768       -1.9317643820
 H          3.3802071518        5.0645863729       -0.6002842663
 H          3.3730252164        3.2950785409       -0.9851822402
 H          1.3896381177        4.7617698877        0.8685825457
