  62
        -98.94116053
 C         -2.1801896306       -0.8923417873       -0.3442520258
 C         -1.1679441308       -1.1564510677       -1.3020154210
 C         -0.2742174739       -2.2876672538       -1.0327094703
 C         -0.4850631085       -3.0354964297        0.0647623496
 C          0.3801963681       -4.1734190099        0.5268297358
 C          1.6175387856       -3.6204969026        1.2636482552
 C          2.9477150018       -3.8686879594        0.5492887248
 H          3.6947697718       -3.2368091981        1.0352258958
 H          3.2435231715       -4.9093406308        0.7022624592
 C          2.9655339702       -3.5940033574       -0.9577145927
 H          4.0138880504       -3.5508220173       -1.2604271574
 H          2.5218108326       -4.4384761342       -1.4874975336
 C          2.2664860027       -2.3045481215       -1.4080274723
 H          2.8745980065       -1.8347763312       -2.1839539907
 H          2.2051004669       -1.5966534120       -0.5793874273
 C          0.8572466319       -2.5193433189       -1.9939385699
 H          0.7826370205       -3.5225847239       -2.4219372697
 H          0.6949588504       -1.8015860215       -2.8031209887
 H          1.6778313457       -4.0680149478        2.2576431779
 H          1.4770322991       -2.5476409086        1.4168816539
 H         -0.2193219363       -4.7836530405        1.2033101280
 H          0.6779767724       -4.7825247588       -0.3239619512
 O         -1.4931264109       -2.7858781449        0.9363050395
 C         -2.3139646842       -1.6692882447        0.8060628481
 O         -3.0981096395       -1.5201281525        1.7627837135
 O         -1.0132284930       -0.4514270083       -2.3376474983
 C         -2.9763358752        0.3791752588       -0.5767321568
 C         -2.1510064021        1.5858104810       -0.1785139847
 C         -2.3438306680        2.8213005488       -0.7877054280
 C         -1.5509798172        3.9034124365       -0.4515379378
 C         -0.5247172634        3.7678479403        0.4677331350
 C         -0.3256887446        2.5388855937        1.0834525499
 C         -1.1613469175        1.4727041248        0.7846115994
 H         -0.9997357062        0.5307245135        1.2861975431
 N          0.7274202371        2.3319126177        1.9967591013
 S          1.8363093252        1.1253534250        1.6392038540
 O          1.1876145404       -0.1594598971        1.6035914028
 O          2.8832503052        1.2860549614        2.6250289781
 C          2.4686894560        1.5529417902        0.0278486478
 C          1.7309787543        1.2368170157       -1.0949800353
 C          2.2097158209        1.6189003807       -2.3384044376
 C          3.4088903118        2.3066980559       -2.4384724444
 C          4.1383334855        2.6172363868       -1.3002294356
 C          3.6637939870        2.2418104181       -0.0541494692
 H          4.1989004902        2.4548648048        0.8571945053
 H          5.0723212655        3.1497652285       -1.3800786806
 H          3.7765463838        2.5997494532       -3.4092052418
 H          1.6320087095        1.3698613994       -3.2142976058
 H          0.8031733549        0.6962802703       -0.9983946879
 H          1.2245338913        3.1763735933        2.2450779164
 H          0.1186402639        4.6017525779        0.7040636248
 H         -1.7135591064        4.8567521254       -0.9301402618
 H         -3.1121509510        2.9272292603       -1.5378028171
 H         -3.1284298785        0.4417638225       -1.6646426899
 C         -4.3321753824        0.4224416809        0.0959237524
 C         -5.4676421117        1.1472939797       -0.5612791475
 C         -5.4727749387       -0.3494505392       -0.4935998135
 H         -6.1563664790       -0.8428529299        0.1799805086
 H         -5.2819704829       -0.9029879044       -1.4014371456
 H         -6.1571031213        1.6925068913        0.0644418275
 H         -5.2901441467        1.6028878251       -1.5234195776
 H         -4.2721634285        0.4585167681        1.1761316510
