  62
        -98.94438646
 C         -1.9026866454       -0.7960200642        0.0071200230
 C         -2.4184641286        0.5064598817        0.2106942307
 C         -3.8324839650        0.5738506837        0.6023633382
 C         -4.5378686546       -0.5600473424        0.7669675631
 C         -5.9785157740       -0.6538520038        1.1913014738
 C         -6.9809500764       -0.4907655553        0.0406765906
 C         -7.1174212420        0.9308093681       -0.5058843805
 H         -7.9994737124        0.9435652384       -1.1492440846
 H         -7.3059617762        1.6193983202        0.3183367435
 C         -5.9080391448        1.4157462443       -1.3175507578
 H         -5.2978387815        0.5583000885       -1.6106939476
 H         -6.2540248819        1.8911799400       -2.2381876657
 C         -5.0213252915        2.4275588733       -0.5914164736
 H         -5.5848538073        3.3456492200       -0.4103543478
 H         -4.1779688219        2.6734823652       -1.2419185558
 C         -4.4573698137        1.9286289503        0.7454589675
 H         -5.2424558565        1.9095766894        1.5011533429
 H         -3.6758346463        2.6211082097        1.0681644219
 H         -7.9576496896       -0.8094439987        0.4120083171
 H         -6.6965474053       -1.1666300853       -0.7690563322
 H         -6.1104922923       -1.6479155846        1.6239361289
 H         -6.1827096054        0.0903740861        1.9615497658
 O         -3.9966927268       -1.7936261370        0.5812536151
 C         -2.6783660942       -1.9418224617        0.1817193364
 O         -2.3165515184       -3.1262706214        0.0289761156
 O         -1.7377582204        1.5566888120        0.0790112430
 C         -0.4588234105       -0.9794925719       -0.4248364745
 C          0.4671823012       -0.3200792907        0.5677472865
 C          0.2931629235       -0.5856154318        1.9243498269
 C          1.1026438819        0.0092048615        2.8713232275
 C          2.1164927871        0.8694966038        2.4861833014
 C          2.3076673391        1.1319226932        1.1360609922
 C          1.4896031408        0.5335076471        0.1856558377
 H          1.6534268676        0.7710361753       -0.8516293000
 N          3.3250210510        2.0050083550        0.7167538395
 S          4.3121718035        1.5768849484       -0.5626408707
 O          5.4729412497        2.4288067539       -0.4255931546
 O          3.5953036637        1.6748921005       -1.8076445285
 C          4.7534349935       -0.1178436415       -0.2264529949
 C          5.6870860754       -0.3634710030        0.7616917605
 C          5.9923284255       -1.6752257543        1.0849045579
 C          5.3553980703       -2.7144947146        0.4234281018
 C          4.4225569014       -2.4511003597       -0.5673444155
 C          4.1155972689       -1.1404212636       -0.8977491039
 H          3.3993560299       -0.8955162159       -1.6644298619
 H          3.9300724766       -3.2607185922       -1.0822368297
 H          5.5887474250       -3.7361202829        0.6788345319
 H          6.7212361494       -1.8841470961        1.8512701421
 H          6.1677432724        0.4716164550        1.2450152090
 H          3.8663981550        2.4036067522        1.4699012521
 H          2.7453864088        1.3426585680        3.2249079414
 H          0.9461924871       -0.1988068047        3.9190667121
 H         -0.4998655562       -1.2568979088        2.2255325241
 H         -0.2713468801       -2.0631504037       -0.4026591343
 C         -0.2786770792       -0.4831784023       -1.8443184139
 C          0.7135829297       -1.1376930938       -2.7558130421
 C         -0.7548703401       -1.3374557990       -2.9791545330
 H         -1.2215877738       -0.8569097119       -3.8259786578
 H         -1.1838329362       -2.2973861805       -2.7297910752
 H          1.2641056754       -0.5188183913       -3.4493104693
 H          1.2734616796       -1.9732225437       -2.3630760429
 H         -0.4272404611        0.5871523072       -1.9351677084
