  62
        -98.93966601
 C         -2.0935774805       -0.4519346103        0.2283043689
 C         -2.7569043396        0.7982823962        0.1252968221
 C         -4.1174972367        0.7758918532       -0.4254278618
 C         -4.6463243517       -0.3981642235       -0.8148882708
 C         -6.0396697289       -0.5803356679       -1.3416030929
 C         -7.0255302748       -0.8926087166       -0.2070909438
 C         -6.9221509161        0.0629155341        0.9817009316
 H         -7.6840407581       -0.2344089752        1.7055524433
 H         -5.9511540638       -0.0712105250        1.4640311802
 C         -7.1077490382        1.5441174464        0.6237830207
 H         -7.7748813909        2.0010340756        1.3577526182
 H         -7.5892904571        1.6326189201       -0.3507141635
 C         -5.8159112863        2.3637443570        0.6258995683
 H         -6.0844278461        3.4225268969        0.5782683028
 H         -5.2817898143        2.2048320402        1.5662497304
 C         -4.8471752797        2.0853429589       -0.5304185004
 H         -5.3796876392        2.1545782522       -1.4812670571
 H         -4.0752270753        2.8603705423       -0.5114907845
 H         -6.8313701743       -1.9062310156        0.1510067820
 H         -8.0386199005       -0.8634867064       -0.6121927465
 H         -6.3452482339        0.3239427972       -1.8643392215
 H         -6.0350459340       -1.4133604797       -2.0464507196
 O         -3.9750906732       -1.5720695909       -0.7265303789
 C         -2.6871272847       -1.6380976150       -0.2062770056
 O         -2.2142401923       -2.7887979433       -0.1964117339
 H          1.3086704634        1.3938095510        0.7049032832
 C          1.3031816429        0.7333568429       -0.1488352000
 C          0.3433556117       -0.2618629794       -0.2575645460
 C          0.3609119275       -1.0913349943       -1.3758360802
 C          1.3134242406       -0.9181561768       -2.3624082150
 C          2.2763807039        0.0699414814       -2.2454820649
 C          2.2716395019        0.8985449258       -1.1308077456
 N          3.2429898604        1.9080011927       -0.9733649670
 S          4.2616275853        1.8025444031        0.3520428301
 O          3.4914106718        1.8763266114        1.5656541317
 O          5.2565646647        2.8307027399        0.1495448260
 C          5.0128441555        0.1920433100        0.1932178839
 C          4.3252019262       -0.9131241434        0.6534086856
 C          4.8733502737       -2.1713097993        0.4611418157
 C          6.0929861279       -2.3016578412       -0.1854151354
 C          6.7724880621       -1.1816375098       -0.6405896580
 C          6.2266433682        0.0785034914       -0.4561144226
 H          6.7215578035        0.9764191638       -0.7894950038
 H          7.7222359315       -1.2867110544       -1.1398794477
 H          6.5160767524       -3.2826712501       -0.3333587377
 H          4.3430953877       -3.0406291340        0.8159956935
 H          3.3822850258       -0.7741342448        1.1558031322
 H          3.7934091450        2.0726227878       -1.8049917294
 H          3.0220173787        0.2030825678       -3.0148576717
 H          1.3120995728       -1.5644513636       -3.2268704419
 H         -0.3777048873       -1.8742998587       -1.4564088744
 C         -0.6965590712       -0.4291162380        0.8219985685
 H         -0.6705232204        0.4832458547        1.4391838047
 C         -0.4074052167       -1.6121107859        1.7383311890
 C          0.7144569725       -2.5745585371        1.4991959203
 C          0.8086414688       -1.5819233817        2.6164857030
 H          0.7221077551       -1.9336814701        3.6335158055
 H          1.4791900858       -0.7415690409        2.5026684149
 H          0.5410291909       -3.6115507210        1.7426505835
 H          1.3340514763       -2.4292139610        0.6280350731
 H         -1.3101580241       -2.0260954659        2.1735860885
 O         -2.2318722366        1.8860746210        0.4875377934
