  62
        -98.94791769
 C          0.9681159652        1.6344115905        0.4576506402
 C          1.7366277661        1.2874815907       -0.6804975064
 C          2.8417872817        0.3461133576       -0.4442248123
 C          3.0688510308       -0.1087904740        0.8009196245
 C          4.1714907612       -1.0514469302        1.1873220712
 C          3.7185489798       -2.5163070445        1.1552655619
 C          3.0155074307       -2.9247493427       -0.1393449031
 H          2.0455902704       -2.4271375896       -0.2096340700
 H          2.8108398434       -3.9962698792       -0.0733810639
 C          3.8128510905       -2.6387142225       -1.4190586301
 H          3.7262178319       -3.5042487176       -2.0794138483
 H          4.8707615517       -2.5142639912       -1.1821876437
 C          3.3170709691       -1.4267781963       -2.2114345357
 H          2.2298951989       -1.4880487402       -2.3147615630
 H          3.7472569834       -1.4769488672       -3.2157456168
 C          3.6747162711       -0.0528917223       -1.6286130366
 H          3.4767464939        0.6985768474       -2.3988547745
 H          4.7393245772       -0.0219394109       -1.3844755858
 H          3.0309512874       -2.6882225597        1.9868537544
 H          4.5963860423       -3.1481566891        1.3062974079
 H          5.0120732865       -0.9077943619        0.5109686208
 H          4.4885754422       -0.8034379530        2.2023268708
 O          2.3026479596        0.2382810202        1.8670015911
 C          1.2279491016        1.1034336999        1.7197083922
 O          0.5971215713        1.3205282569        2.7741415362
 H         -0.6784408441        0.0442664171       -0.3615668703
 C         -1.3741174673        0.7170336330       -0.8360078246
 C         -1.2494367939        2.0818944486       -0.6261124814
 C         -2.1376522695        2.9338700934       -1.2738640202
 C         -3.1119148974        2.4222783662       -2.1127450680
 C         -3.2282752678        1.0598497215       -2.3218033389
 C         -2.3426236243        0.1999277468       -1.6818430172
 N         -2.4094579894       -1.1810547628       -1.8854791446
 S         -1.6699779320       -2.2842250797       -0.8880558576
 O         -0.2363888911       -2.1888990262       -0.9945134533
 O         -2.2512261448       -3.5502503806       -1.2821710722
 C         -2.2014021254       -1.8773081898        0.7648806619
 C         -3.5562176377       -1.8714229266        1.0326967045
 C         -3.9859609218       -1.5369337326        2.3062629694
 C         -3.0591272785       -1.2092878315        3.2846770547
 C         -1.7019884773       -1.2268264008        3.0036939702
 C         -1.2686352653       -1.5681312847        1.7328530241
 H         -0.2189666760       -1.5841186077        1.4800755927
 H         -0.9757361235       -0.9544176727        3.7530087272
 H         -3.3932070748       -0.9376945778        4.2735555710
 H         -5.0401665295       -1.5259815878        2.5316978061
 H         -4.2482615400       -2.1347086316        0.2496565002
 H         -3.2147242751       -1.5340206868       -2.3768448214
 H         -3.9847691772        0.6639695849       -2.9813371740
 H         -3.7928060808        3.0947306071       -2.6120143718
 H         -2.0614258064        3.9986185591       -1.1245102193
 C         -0.1979669858        2.5946042727        0.3304142446
 H         -0.6552088045        2.6484784042        1.3305727713
 C          0.3031457018        3.9764206717       -0.0475671712
 C         -0.3374195452        5.2057305888        0.5216314616
 C          1.0248657842        4.7883540328        0.9846618068
 H          1.8804465806        5.3712261294        0.6783355485
 H          1.1210185788        4.3577354742        1.9711381442
 H         -1.1617244022        5.0724015105        1.2060442666
 H         -0.4168432935        6.0818583127       -0.1043773391
 H          0.6763865827        4.0163657854       -1.0644761680
 O          1.5223521546        1.7504868902       -1.8315155963
