  62
        -98.93885898
 C          2.0030150154        1.3427876650        0.0168819103
 C          2.6070247566        0.7189897240        1.1320163817
 C          3.8312295354       -0.0566674894        0.8684290004
 C          4.2878146613       -0.1443983298       -0.3931620754
 C          5.4808684229       -0.9188000334       -0.8811563508
 C          5.0611010076       -2.3166721139       -1.3662795247
 C          5.0148169736       -3.3891268625       -0.2783899098
 H          4.5770999033       -4.2854556654       -0.7240734920
 H          6.0342430531       -3.6382952002        0.0235852838
 C          4.2117574974       -3.0196199227        0.9717008722
 H          3.2821040071       -2.5279287329        0.6783855525
 H          3.9392132649       -3.9466130013        1.4803226723
 C          4.9919916451       -2.1273990770        1.9489199302
 H          6.0432230034       -2.1213107661        1.6616624539
 H          4.9473699924       -2.5631582329        2.9492182101
 C          4.4820484686       -0.6833565104        2.0714775575
 H          3.7201967032       -0.6324341313        2.8558322986
 H          5.3071029984       -0.0408215474        2.3963730805
 H          5.7621426662       -2.6462908188       -2.1357225237
 H          4.0786687143       -2.2267506872       -1.8374398411
 H          6.2419147617       -0.9823027777       -0.1090987414
 H          5.8854601693       -0.3639724108       -1.7301845017
 O          3.6575730915        0.4471018607       -1.4446029881
 C          2.5042627678        1.1952107083       -1.2764275776
 O          2.0369881825        1.6638443954       -2.3304984120
 O          2.1373185172        0.7977041213        2.3006622255
 C          0.7463098541        2.1686007239        0.2288471534
 C         -0.4140588991        1.5211192712       -0.4861568438
 C         -1.2228513247        2.1801922081       -1.4013614292
 C         -2.2591945061        1.5100439279       -2.0299752097
 C         -2.5191442138        0.1813596479       -1.7524039706
 C         -1.7295393451       -0.4815545906       -0.8199617800
 C         -0.6919457550        0.1905085736       -0.1935470709
 H         -0.0743308721       -0.3273506053        0.5298855761
 N         -1.9992288635       -1.8250923168       -0.5119058580
 S         -3.5959350750       -2.2817845041       -0.3073868562
 O         -3.5531844375       -3.4099504537        0.5965249882
 O         -4.1978008319       -2.5314632863       -1.5936070752
 C         -4.3941666155       -0.8869975208        0.4689347030
 C         -5.4658705455       -0.2764973540       -0.1499426517
 C         -6.0560420424        0.8199968532        0.4581075082
 C         -5.5638599829        1.2868975451        1.6667110105
 C         -4.4885676628        0.6602711648        2.2781791577
 C         -3.8963854417       -0.4378576984        1.6761741272
 H         -3.0613838255       -0.9478900606        2.1297129051
 H         -4.1063810492        1.0241610803        3.2184843761
 H         -6.0199901465        2.1437168764        2.1368373507
 H         -6.8934585439        1.3077369076       -0.0140740810
 H         -5.8134394767       -0.6699829982       -1.0912999576
 H         -1.4078396621       -2.2106635695        0.2089859529
 H         -3.3101872839       -0.3569765786       -2.2486877039
 H         -2.8716269609        2.0304103560       -2.7501860632
 H         -1.0353045181        3.2149484361       -1.6342523275
 H          0.5472924073        2.1197528335        1.3095575812
 C          0.9797042672        3.6128891232       -0.1576796380
 C          0.1600293972        4.6985561373        0.4711069468
 C          1.6025695313        4.5380289469        0.8430491933
 H          2.3128046391        5.2721941970        0.4933439354
 H          1.8404894788        4.1313259312        1.8152412671
 H         -0.1205308013        5.5482377160       -0.1325156556
 H         -0.5850823461        4.4054148379        1.1948109241
 H          1.2764217248        3.7263713726       -1.1939627747
