  62
        -98.94415238
 C          2.5279657353       -1.1501595649        0.0774914727
 C          3.2176859063       -0.3807946509       -0.8891706973
 C          4.0069829272        0.7414917249       -0.3699956115
 C          4.0460785514        0.9729491591        0.9552348405
 C          4.8271679598        2.0615163579        1.6403977300
 C          4.1074060626        3.4165359721        1.6812849148
 C          4.0320944912        4.1533156722        0.3434011303
 H          3.6985891652        5.1710570266        0.5552962304
 H          5.0303622255        4.2214492902       -0.0898461121
 C          3.0707183719        3.5214043967       -0.6731453103
 H          2.3946978325        2.8355473797       -0.1563831605
 H          2.4515041226        4.3005089639       -1.1240470291
 C          3.7589463424        2.7723988379       -1.8146813659
 H          4.3371391911        3.4757869637       -2.4178560333
 H          2.9867492250        2.3377540113       -2.4554724862
 C          4.6885618065        1.6402445376       -1.3573736798
 H          4.9502556770        1.0380149606       -2.2308814815
 H          5.6020416316        2.0533517905       -0.9304772742
 H          4.6453707490        4.0499954766        2.3901414465
 H          3.0981772606        3.2642600069        2.0708422271
 H          5.7966908054        2.1774877793        1.1553719676
 H          4.9889275766        1.7272851005        2.6673535549
 O          3.3710430553        0.2073975466        1.8527301575
 C          2.5751798775       -0.8523163272        1.4397258078
 O          1.9805541931       -1.4366174268        2.3638634663
 O          3.1720484520       -0.6178584192       -2.1274503467
 C          1.6708160309       -2.3138413614       -0.3849508306
 C          0.2213853028       -2.0614965568       -0.0462215105
 C         -0.6064206865       -3.0120482853        0.5355535282
 C         -1.9309567552       -2.7148047231        0.8084067491
 C         -2.4586343466       -1.4732883621        0.5069940266
 C         -1.6441617095       -0.5192064705       -0.0896787721
 C         -0.3197661652       -0.8213267746       -0.3645323326
 H          0.3129430156       -0.0771280447       -0.8339534452
 N         -2.1695198170        0.7490538543       -0.3963930338
 S         -3.5880182799        0.8180831243       -1.2949061930
 O         -3.7269742248       -0.3371560958       -2.1509844304
 O         -3.5555008908        2.1062088131       -1.9526380425
 C         -4.8749227030        0.8267238174       -0.0649899712
 C         -4.8544972392        1.8240128912        0.8902501742
 C         -5.8525517667        1.8504979772        1.8510776391
 C         -6.8499609061        0.8866628185        1.8386121248
 C         -6.8582875173       -0.1059550899        0.8706755427
 C         -5.8620856246       -0.1387551683       -0.0928599856
 H         -5.8249093432       -0.8938711108       -0.8618329680
 H         -7.6348160634       -0.8538437581        0.8626153348
 H         -7.6254127431        0.9098429943        2.5879083692
 H         -5.8491563836        2.6209609959        2.6052599962
 H         -4.0643572139        2.5558144926        0.8621692938
 H         -1.4855635265        1.3887917226       -0.7739920548
 H         -3.4872373670       -1.2368112050        0.7247904632
 H         -2.5605203788       -3.4615356539        1.2676071562
 H         -0.2142902779       -3.9853719510        0.7799051074
 H          1.7622272760       -2.3241933441       -1.4820491250
 C          2.2063093208       -3.6213049656        0.1586843243
 C          2.0052774194       -4.8951809190       -0.6047652725
 C          3.3652832642       -4.2703968592       -0.5346273095
 H          4.1244742185       -4.7476936316        0.0665081960
 H          3.7516997004       -3.7819800480       -1.4174897964
 H          1.8327814176       -5.8061895209       -0.0519431001
 H          1.4695710326       -4.8381488978       -1.5403907885
 H          2.1852980635       -3.6613717277        1.2417476435
