  62
        -98.93663743
 C          1.4297280944        1.0354462002       -0.3610323143
 C          2.7722228096        1.4670595012       -0.4899433896
 C          3.8026460639        0.4162689168       -0.5685785339
 C          3.4250290448       -0.8712808204       -0.4915405191
 C          4.3083468575       -2.0883635505       -0.5018309663
 C          4.6587880021       -2.5186697388        0.9326317340
 C          5.8904964043       -1.8369717177        1.5272127396
 H          5.9488543871       -2.1296286929        2.5781449060
 H          6.7862416848       -2.2174838743        1.0317134921
 C          5.8974156298       -0.3084221089        1.4420332007
 H          6.5941833484        0.0661627604        2.1945520956
 H          4.9090997745        0.0789055746        1.6965175955
 C          6.3252235548        0.2175205260        0.0637873943
 H          7.1214310079        0.9544400870        0.1888986531
 H          6.7519823963       -0.6020782818       -0.5141370162
 C          5.2156481153        0.9001670163       -0.7492217746
 H          5.1782815799        1.9635074535       -0.4914601281
 H          5.4698199155        0.8475310497       -1.8135038971
 H          4.8323415596       -3.5966037760        0.9427652643
 H          3.7882415158       -2.3213234355        1.5633053947
 H          3.7311518446       -2.8868175188       -0.9724875103
 H          5.2041122122       -1.9105571503       -1.0894410786
 O          2.1268301272       -1.2434295067       -0.3296641787
 C          1.0970271554       -0.3158993910       -0.2486705183
 O         -0.0242109378       -0.8232122297       -0.0777221278
 H         -2.3167934517        1.3736997664       -0.4269720732
 C         -1.9367826115        1.4218364857        0.5789910315
 C         -0.6200468243        1.7794527228        0.8196909318
 C         -0.1689167911        1.8232894448        2.1364582561
 C         -1.0127219358        1.5077206508        3.1831775699
 C         -2.3231717402        1.1367189640        2.9384827984
 C         -2.7841653487        1.0939595028        1.6282241670
 N         -4.1127247667        0.7421713574        1.3575529884
 S         -4.5623186465       -0.0099230627       -0.0600384731
 O         -4.5200869021        0.9280518683       -1.1549529160
 O         -5.8712530812       -0.5539344449        0.2413271673
 C         -3.4246045787       -1.3518032511       -0.3453171994
 C         -2.8706245632       -1.5098601554       -1.5971463684
 C         -2.0266727040       -2.5830944975       -1.8269728937
 C         -1.7512408134       -3.4743446088       -0.8038641970
 C         -2.3171652870       -3.3025997856        0.4489187572
 C         -3.1648589904       -2.2337855639        0.6831328866
 H         -3.6202270404       -2.0790385335        1.6480996569
 H         -2.0927855984       -3.9944207805        1.2452144469
 H         -1.0836412649       -4.3030110716       -0.9816369975
 H         -1.5784693920       -2.7128405882       -2.7997741509
 H         -3.1012324672       -0.7869315570       -2.3634453615
 H         -4.6426011350        0.4081517651        2.1483403895
 H         -2.9836073111        0.8827670878        3.7534892915
 H         -0.6477652089        1.5435971256        4.1986817636
 H          0.8593270733        2.1000911987        2.3267528978
 C          0.3488411022        2.0990664125       -0.2891941774
 H          0.8866064292        3.0232913251       -0.0188658856
 C         -0.3393388062        2.3702386574       -1.6184181431
 C          0.4035990698        2.2453591228       -2.9137547631
 C         -0.6884244974        1.2758408917       -2.5799969217
 H         -1.6248925417        1.3508057767       -3.1142735361
 H         -0.4197232512        0.2667757976       -2.3083357297
 H          0.2234528492        2.9821128404       -3.6821308379
 H          1.4256061059        1.8979379256       -2.8721941607
 H         -1.0454350341        3.1926334976       -1.5471283938
 O          3.1004749033        2.6839834028       -0.5286124194
