  62
        -98.93946517
 C          2.5558107823        0.9010689225        0.2296366315
 C          3.1942763555       -0.0855471955        1.0231637839
 C          3.5328969658       -1.3424739784        0.3476560603
 C          3.2086590939       -1.5104150915       -0.9470071545
 C          3.4998274218       -2.7274419785       -1.7823043903
 C          2.4617279173       -3.8479413077       -1.6309385608
 C          2.5173881183       -4.6109149591       -0.3066917965
 H          1.8947390357       -5.4999212416       -0.4242024147
 H          3.5383450495       -4.9484543908       -0.1252786660
 C          2.0130489589       -3.8136853751        0.9043396694
 H          1.4225833509       -2.9616901184        0.5567695279
 H          1.3443699334       -4.4404665889        1.4989772390
 C          3.1151886315       -3.3133785840        1.8387297119
 H          3.6199824504       -4.1666629264        2.2968285997
 H          2.6494462286       -2.7292464983        2.6365805834
 C          4.1697783288       -2.4298629779        1.1597602061
 H          4.7705438600       -1.9544159718        1.9389537047
 H          4.8231867864       -3.0373013719        0.5341311093
 H          2.6293878114       -4.5591570843       -2.4431082398
 H          1.4641258305       -3.4210282360       -1.7643707228
 H          4.4908685166       -3.1115438706       -1.5384895850
 H          3.4996620319       -2.3968184173       -2.8232061001
 O          2.5711163764       -0.5519469242       -1.6691083229
 C          2.2015701706        0.6611151958       -1.0996289273
 O          1.5843126449        1.4121027541       -1.8777754260
 O          3.4624472260        0.0760026230        2.2438280556
 C          2.1547690501        2.1991855023        0.9094888779
 C          0.7083929511        2.4983946336        0.6037882749
 C          0.2588667942        3.6794406944        0.0301040786
 C         -1.0837126054        3.8508031723       -0.2628204009
 C         -2.0033211864        2.8539990722        0.0048928197
 C         -1.5637433497        1.6706520688        0.5814310072
 C         -0.2241554138        1.5080789930        0.8890233909
 H          0.1147781158        0.5766897417        1.3295930089
 N         -2.4964387947        0.6340914798        0.8353462111
 S         -3.0216004248       -0.2157029018       -0.5324625571
 O         -2.2407374425       -1.4306417780       -0.6599034208
 O         -3.0454073731        0.6680501825       -1.6682509687
 C         -4.6885066639       -0.6259907147       -0.0523311016
 C         -4.9615584358       -1.8641806747        0.4945837118
 C         -6.2572334943       -2.1483156916        0.8974644037
 C         -7.2509177406       -1.1926024985        0.7515214750
 C         -6.9609353412        0.0470353037        0.2010005635
 C         -5.6679521923        0.3360267032       -0.2040599209
 H         -5.3976571905        1.2810775934       -0.6453317253
 H         -7.7362812052        0.7873402298        0.0867927543
 H         -8.2580601267       -1.4158946141        1.0663252096
 H         -6.4855880541       -3.1122632269        1.3230573253
 H         -4.1600687294       -2.5799523047        0.5812916965
 H         -2.1183021951       -0.0502809976        1.4782271271
 H         -3.0447408092        2.9678508926       -0.2462954097
 H         -1.4151620639        4.7715231588       -0.7185706626
 H          0.9634558318        4.4562714445       -0.2177068473
 H          2.2337021471        1.9745415973        1.9870948458
 C          3.0904803142        3.3684791344        0.6458813524
 C          4.5261882159        3.1407292855        0.2808767576
 C          3.5785995931        3.7131967573       -0.7280649670
 H          3.6787432953        4.7568452789       -0.9884358016
 H          3.2522577892        3.0889332380       -1.5447985511
 H          5.2741146619        3.7885220526        0.7127731356
 H          4.8539015173        2.1192783865        0.1514261277
 H          2.8938724747        4.2010018847        1.3144336702
