  62
        -98.94132321
 C          1.6318481768        0.3120757573        0.2719972633
 C          2.7737200839        1.0007413388       -0.2053015222
 C          3.8597410807        0.1545872143       -0.7205670126
 C          3.7151991451       -1.1813909007       -0.7623024773
 C          4.7219891715       -2.1682311086       -1.2880681741
 C          5.8019096909       -2.5617203674       -0.2707668908
 C          6.8453448881       -1.4826725728        0.0216148845
 H          7.2631632775       -1.1186544761       -0.9175437917
 H          7.6558641862       -1.9621845075        0.5741928382
 C          6.3189731331       -0.2995740799        0.8460673863
 H          7.0297140192       -0.0652207901        1.6418365788
 H          5.3801559522       -0.5806142680        1.3286895382
 C          6.0974594376        0.9829546129        0.0442775673
 H          7.0547178704        1.3488405863       -0.3338602342
 H          5.6892518954        1.7413960447        0.7171216822
 C          5.1319732305        0.8290328656       -1.1380208536
 H          5.6104707299        0.2739258801       -1.9444796970
 H          4.8751815979        1.8263590649       -1.5032569437
 H          6.3191052601       -3.4382860068       -0.6678242404
 H          5.3135346259       -2.8577544366        0.6604901305
 H          5.1947262517       -1.7672845339       -2.1851270469
 H          4.1630151973       -3.0658307517       -1.5609579914
 O          2.5857274310       -1.8044405245       -0.3333943487
 C          1.5360886084       -1.0823090060        0.2068756573
 O          0.5802980941       -1.7855197263        0.5911587543
 O          2.9068551601        2.2530271131       -0.2153006354
 C          0.4220338495        1.0110736206        0.8712262823
 C         -0.5007601578        1.5278976636       -0.2065432694
 C         -0.1167830371        2.5497419348       -1.0684293153
 C         -0.9925339271        3.0127775739       -2.0328663214
 C         -2.2664894098        2.4836880799       -2.1438207515
 C         -2.6577399146        1.4585184238       -1.2905829410
 C         -1.7685745308        0.9805114854       -0.3383316974
 H         -2.0700209996        0.1741147624        0.3125076591
 N         -3.9333812085        0.8896212071       -1.3930177054
 S         -4.7396921602        0.3222739028       -0.0436672143
 O         -6.1313934661        0.3065865797       -0.4412805419
 O         -4.4256403472        1.0978547884        1.1333431511
 C         -4.1739273675       -1.3544417156        0.1402775928
 C         -3.6950319201       -1.7888370862        1.3595600930
 C         -3.2776849709       -3.1039363141        1.4867953735
 C         -3.3483213006       -3.9575608169        0.3974434195
 C         -3.8358242426       -3.5071256752       -0.8200528780
 C         -4.2545735534       -2.1935469688       -0.9530964835
 H         -4.6414825538       -1.8081950037       -1.8817502722
 H         -3.8875444459       -4.1753613694       -1.6646668629
 H         -3.0184442774       -4.9794269598        0.4989096254
 H         -2.8935084233       -3.4545309956        2.4312301387
 H         -3.6509366362       -1.0906675042        2.1811112996
 H         -4.5534423674        1.3351937770       -2.0528462828
 H         -2.9534011052        2.8574090182       -2.8880256113
 H         -0.6843888669        3.8040240118       -2.6996947909
 H          0.8750598569        2.9655227966       -0.9816498367
 H         -0.1240517490        0.2341921634        1.4237101752
 C          0.7803793109        2.1202191289        1.8419141931
 C         -0.2783939086        2.6230573093        2.7750842858
 C          0.8676672434        1.8155097228        3.3053600408
 H          1.6234418118        2.3162062626        3.8919120063
 H          0.6740475280        0.7996237986        3.6185190906
 H         -0.3093377407        3.6787723259        2.9974653327
 H         -1.2531892390        2.1595972446        2.7234314333
 H          1.4806165210        2.8393857635        1.4388277622
