  62
        -98.93420531
 C          2.0121899447        1.0872720850        0.1648851683
 C          2.3377203844       -0.2781871183       -0.0120138695
 C          3.7217090208       -0.6829178489        0.3249687723
 C          4.5771543790        0.2398629944        0.7999318039
 C          6.0294457845        0.0754092587        1.1620115312
 C          6.9430913838       -0.0059093005       -0.0712379885
 C          6.4323975173       -0.9096095565       -1.1901738508
 H          7.1121115884       -0.8027696687       -2.0397270133
 H          5.4512725577       -0.5586881539       -1.5150993998
 C          6.3504463525       -2.3937408670       -0.8409931165
 H          7.3401579787       -2.7472137645       -0.5433817128
 H          6.0688690123       -2.9262338054       -1.7531427143
 C          5.3494325507       -2.7692931984        0.2541735980
 H          5.7430739375       -2.5444671393        1.2418271510
 H          5.2157254008       -3.8543981337        0.2144956756
 C          3.9635016405       -2.1542707473        0.0872682461
 H          3.2666030014       -2.6761815415        0.7545909008
 H          3.5990848034       -2.3637015570       -0.9251402454
 H          7.9288256004       -0.3446698597        0.2520694478
 H          7.0501939128        1.0019752283       -0.4798943912
 H          6.1604626472       -0.7944331591        1.7987479601
 H          6.3081538788        0.9573974401        1.7431054119
 O          4.2073339935        1.5392642631        0.9878732019
 C          2.9380355932        1.9915093221        0.6924692336
 O          2.7531120870        3.1996031112        0.9423173344
 O          1.5334267561       -1.1441335472       -0.4438895841
 C          0.6314708286        1.6466704193       -0.1385798452
 C         -0.4300430606        0.7669691255        0.4718774943
 C         -0.6348822936        0.8122862730        1.8473990795
 C         -1.5845697809        0.0071774243        2.4483052660
 C         -2.3471358246       -0.8630726934        1.6898421538
 C         -2.1463778032       -0.9190328054        0.3170613135
 C         -1.2044343342       -0.0963805455       -0.2866975805
 H         -1.0428859195       -0.1642926048       -1.3510727284
 N         -2.9086264313       -1.8107088792       -0.4579837450
 S         -4.5675682417       -1.8135829827       -0.2574292627
 O         -4.9106776617       -2.5004867702        0.9624903237
 O         -5.0986513195       -2.3801091342       -1.4768944351
 C         -5.0043037278       -0.0889829731       -0.1288495040
 C         -4.9139448765        0.6874574311       -1.2674676523
 C         -5.1881873731        2.0422231655       -1.1791898635
 C         -5.5393920598        2.5965119867        0.0425204910
 C         -5.6272121407        1.8035519438        1.1758742927
 C         -5.3560357711        0.4468970268        1.0929220817
 H         -5.4167110510       -0.2044490145        1.9490830635
 H         -5.9024610886        2.2371193924        2.1237774872
 H         -5.7473007533        3.6527682171        0.1100969353
 H         -5.1240537781        2.6611793764       -2.0597590391
 H         -4.6458794891        0.2195987615       -2.2011873979
 H         -2.6546932833       -1.8195924408       -1.4345134562
 H         -3.0814050399       -1.5105220174        2.1411874975
 H         -1.7295809507        0.0524263900        3.5170892206
 H         -0.0299910442        1.4828215142        2.4427657001
 H          0.6045994913        2.6167233840        0.3831707683
 C          0.3831499500        1.9436304071       -1.6103907068
 C          1.4833063432        2.4858130993       -2.4720451309
 C          0.9457680490        1.1099943638       -2.7205127707
 H          0.3366926843        0.9514868306       -3.5990151060
 H          1.5559144973        0.2611027383       -2.4560563838
 H          1.2483368804        3.2681489438       -3.1778073684
 H          2.4627972038        2.5802762966       -2.0256867101
 H         -0.6056125641        2.3628178472       -1.7713370609
