  62
        -98.94953535
 C         -1.6096178429        0.8510307320        0.7057660854
 C         -1.4544186312        1.6389590750       -0.4598740349
 C         -0.4354501860        2.6967660683       -0.3872812937
 C          0.2986644067        2.8308296211        0.7316179351
 C          1.3651182189        3.8666873320        0.9435565927
 C          2.7559153236        3.3649379446        0.5340165028
 C          2.8088930106        2.7314610628       -0.8563899485
 H          3.8515093432        2.4708617937       -1.0557697488
 H          2.2458131204        1.7952368800       -0.8629308382
 C          2.2813448556        3.6248954436       -1.9869897734
 H          2.9657697752        3.5514636963       -2.8348670141
 H          2.2691556480        4.6681242477       -1.6673510283
 C          0.8948443131        3.2281673850       -2.4986830630
 H          0.7288418080        3.7255914097       -3.4584773160
 H          0.8722815322        2.1492610323       -2.6768824941
 C         -0.2823513445        3.5914787822       -1.5842348116
 H         -0.2016416746        4.6374238772       -1.2782386886
 H         -1.2026023655        3.4725498667       -2.1640315909
 H          3.0898315681        2.6219653310        1.2623682189
 H          3.4476635305        4.2090130919        0.5731547417
 H          1.1095142133        4.7564465766        0.3708652389
 H          1.3821995124        4.1230253852        2.0046755239
 O          0.1573755529        2.0190951632        1.8116309587
 C         -0.7914746050        1.0078943472        1.8230803638
 O         -0.8080681372        0.3302836509        2.8705279149
 H         -0.2659148138       -1.3016366613        0.2554373747
 C         -0.9948039702       -1.6883302603       -0.4418653770
 C         -2.3151093217       -1.2696527383       -0.3387029746
 C         -3.2476983268       -1.7904416591       -1.2253996254
 C         -2.8515669451       -2.6805834594       -2.2094032122
 C         -1.5265034496       -3.0536516360       -2.3403697164
 C         -0.5881543455       -2.5475279983       -1.4476548101
 N          0.7678985359       -2.8978548813       -1.5314526794
 S          1.9256660674       -1.7437019240       -1.1638972075
 O          1.4944209700       -0.4132660073       -1.5202733053
 O          3.1243960445       -2.2184572207       -1.8249510716
 C          2.1504655826       -1.8893035755        0.5951640170
 C          2.2103175416       -0.7492094620        1.3701014948
 C          2.3997311012       -0.8719168956        2.7368057497
 C          2.5311203680       -2.1306948177        3.3014491198
 C          2.4780398905       -3.2676072920        2.5088554537
 C          2.2869477108       -3.1500168451        1.1417563798
 H          2.2366743881       -4.0094750504        0.4943013793
 H          2.5800355693       -4.2442544656        2.9540702420
 H          2.6716189022       -2.2232114211        4.3668129822
 H          2.4245928405        0.0137534256        3.3513055572
 H          2.0864784144        0.2120108851        0.8960816577
 H          1.0206337036       -3.4457536094       -2.3409749990
 H         -1.2163985375       -3.7245958606       -3.1270320241
 H         -3.5837761650       -3.0749414470       -2.8977131751
 H         -4.2804185830       -1.4904271099       -1.1565447389
 C         -2.6405365517       -0.2645049060        0.7392224562
 H         -2.5211554284       -0.7590046391        1.7146211908
 C         -4.0422474478        0.2993032431        0.6439826460
 C         -5.1931054230       -0.4344562652        1.2626305542
 C         -4.6920275806        0.8337678543        1.8836269913
 H         -5.2980574305        1.7238031344        1.8052738909
 H         -4.1306897128        0.7678742415        2.8044356070
 H         -4.9795012847       -1.3638747850        1.7683582513
 H         -6.1481712004       -0.4138912404        0.7597482674
 H         -4.2124958184        0.8365992471       -0.2818098817
 O         -2.1478065100        1.4862078492       -1.4997164829
