  62
        -98.94492631
 C         -2.0857560732       -1.3373067693        0.0211114568
 C         -2.6674809547       -0.6739638713        1.1274797233
 C         -3.8012407568        0.2056042177        0.8231499079
 C         -4.2263184003        0.3306376699       -0.4475173913
 C         -5.3794770239        1.1769830931       -0.9145589319
 C         -5.0142073994        2.6482018143       -1.1559348991
 C         -4.7712776349        3.4742388495        0.1079555161
 H         -4.7377292918        4.5224313099       -0.1957621521
 H         -5.6181698768        3.3584268247        0.7850067601
 C         -3.4692407326        3.1334449024        0.8464388892
 H         -2.8085450930        2.5757563346        0.1778189095
 H         -2.9484060589        4.0565279514        1.1119237138
 C         -3.6631070143        2.3340048495        2.1352969625
 H         -4.2155096584        2.9365618453        2.8595454899
 H         -2.6779523888        2.1205492070        2.5583900434
 C         -4.3973500682        0.9998106948        1.9462102468
 H         -4.2875333016        0.4153422002        2.8629353898
 H         -5.4577221007        1.1762160285        1.7682883343
 H         -4.1276881424        2.6881461614       -1.7935228973
 H         -5.8400426469        3.1030839925       -1.7076353506
 H         -5.7171438020        0.7473876574       -1.8600820111
 H         -6.1954272610        1.1166350862       -0.1939470537
 O         -3.6450500997       -0.3305995996       -1.4830842389
 C         -2.5463452657       -1.1559186944       -1.2832691802
 O         -2.0882347613       -1.6594946163       -2.3255317642
 H         -0.0409296052        0.2765246569        0.3286857859
 C          0.6078804484       -0.3272677705       -0.2939750356
 C          0.3223731335       -1.6781599348       -0.4557328201
 C          1.1737097647       -2.4432956935       -1.2412692333
 C          2.2579225513       -1.8589529262       -1.8744186538
 C          2.5224423253       -0.5097757776       -1.7329309872
 C          1.6895934896        0.2610752966       -0.9305321052
 N          1.9502052024        1.6308712797       -0.7681048433
 S          3.5311090484        2.1352144673       -0.5672062506
 O          3.4367265912        3.3870866759        0.1503391744
 O          4.1904320254        2.1923301318       -1.8480678602
 C          4.2997298846        0.8891336698        0.4521741210
 C          3.7691679783        0.6573921046        1.7058636390
 C          4.3361757883       -0.3234915455        2.5028077116
 C          5.4189740941       -1.0525013266        2.0348037725
 C          5.9433099552       -0.8044145131        0.7759942648
 C          5.3789472645        0.1746396517       -0.0261746456
 H          5.7536961879        0.3992386613       -1.0114597319
 H          6.7865341601       -1.3711975783        0.4157324931
 H          5.8558666364       -1.8174042940        2.6570860626
 H          3.9294031043       -0.5168020678        3.4824982846
 H          2.9301263842        1.2448420657        2.0434259251
 H          1.3250942827        2.1001254330       -0.1305539494
 H          3.3479374210       -0.0381695715       -2.2405469773
 H          2.9033741871       -2.4630572307       -2.4933247110
 H          0.9826037879       -3.4957442075       -1.3690294181
 C         -0.8864772889       -2.2380954370        0.2542030129
 H         -0.6961846076       -2.1925240411        1.3371043798
 C         -1.2080695083       -3.6682594587       -0.1229661428
 C         -0.5161664609       -4.8049953809        0.5664546820
 C         -1.9591575336       -4.5215901074        0.8533406403
 H         -2.7068338861       -5.2020217000        0.4742799576
 H         -2.2163192097       -4.0784952049        1.8044905308
 H          0.2081263391       -4.5611283123        1.3286334268
 H         -0.2733873315       -5.6857011945       -0.0086695468
 H         -1.4543326533       -3.7762692045       -1.1731348340
 O         -2.2532680249       -0.8043820279        2.3113022344
