  62
        -98.94009215
 C         -1.9112147106       -1.5039143503       -0.0739494591
 C         -1.7490953394       -0.1766457036       -0.5274658778
 C         -2.9739355494        0.6402980711       -0.6463258246
 C         -4.1611452055        0.0723656719       -0.3631944840
 C         -5.5280454131        0.7035788657       -0.3898088491
 C         -5.7864726352        1.6099697086        0.8241425157
 C         -4.6332332734        2.5425492967        1.1844201331
 H         -4.8983765979        3.0536309756        2.1137196565
 H         -3.7407924441        1.9472282972        1.3856251706
 C         -4.3093416258        3.6090765589        0.1408324643
 H         -3.5445160149        4.2605145355        0.5710928672
 H         -5.1992680820        4.2164328735       -0.0384307813
 C         -3.7916202788        3.0949529234       -1.2046912021
 H         -4.6035383556        2.7207804026       -1.8225128970
 H         -3.3667850290        3.9505219313       -1.7377982468
 C         -2.6847849498        2.0502912424       -1.1025444426
 H         -2.2075889281        1.9486343015       -2.0846616026
 H         -1.8989214171        2.4247447016       -0.4362886347
 H         -5.9805182817        0.9698182568        1.6883386601
 H         -6.6863761262        2.1963784047        0.6308609033
 H         -5.6698459639        1.2494897528       -1.3177567241
 H         -6.2508641868       -0.1151520491       -0.3721997764
 O         -4.2696369607       -1.2250039920        0.0465145735
 C         -3.1659434607       -2.0366391697        0.2158346870
 O         -3.4230839759       -3.1880330925        0.6228130913
 H          2.0150959841       -1.9932073258       -0.3115703667
 C          1.6569175046       -1.6105507164        0.6288649180
 C          0.3222631496       -1.7281332199        0.9818059265
 C         -0.0884462394       -1.2227313557        2.2135941279
 C          0.8094930600       -0.5996338737        3.0574986035
 C          2.1370479676       -0.4611076448        2.6895902251
 C          2.5601618929       -0.9708152618        1.4689098477
 N          3.9093903651       -0.8750828545        1.0823561036
 S          4.3351487820       -0.2278908567       -0.4013492720
 O          3.7465263791       -0.9998953825       -1.4642296050
 O          5.7810697396       -0.1809169950       -0.3719263476
 C          3.6926103157        1.4365870083       -0.3897414421
 C          4.5666502065        2.4746303478       -0.1268292274
 C          4.0785819578        3.7697527090       -0.0759625417
 C          2.7268438733        4.0046219191       -0.2797816511
 C          1.8638102776        2.9511408123       -0.5359923876
 C          2.3442371543        1.6515794458       -0.5924685073
 H          1.6756732014        0.8283684606       -0.7876652422
 H          0.8102590807        3.1181311048       -0.6944293612
 H          2.3440871205        5.0124118503       -0.2399192889
 H          4.7503017987        4.5894581406        0.1225248952
 H          5.6097916501        2.2451110690        0.0200028670
 H          4.5112331349       -0.4904992177        1.7971105575
 H          2.8393002096        0.0324172849        3.3443049906
 H          0.4736158502       -0.2110201392        4.0071137291
 H         -1.1279257754       -1.3231823362        2.4966235919
 C         -0.6967219538       -2.3982408963        0.0928348838
 H         -1.0535905314       -3.3059867246        0.6017018748
 C         -0.1500229628       -2.7885749311       -1.2647597609
 C          0.5733354148       -4.0884619147       -1.4418406288
 C         -0.7996290430       -3.9101471023       -2.0154282917
 H         -0.9054661782       -3.8215118949       -3.0863350788
 H         -1.6261345166       -4.4135217398       -1.5347099206
 H          1.4151977464       -4.1191678463       -2.1174742288
 H          0.6815348152       -4.7225663205       -0.5747164638
 H          0.1918189271       -1.9362978638       -1.8420521464
 O         -0.6293961920        0.3210720738       -0.8150843187
