  62
        -98.93740464
 C         -1.4692306743       -1.2031556560        0.1520373907
 C         -1.6107637884        0.1041104621        0.6846281491
 C         -2.6032446622        0.9762437907        0.0372384464
 C         -3.2724872211        0.5184215491       -1.0344519616
 C         -4.3696027062        1.2233930904       -1.7811550808
 C         -5.7433815327        0.7762360198       -1.2541019095
 C         -6.2517539388        1.5576034593       -0.0428633470
 H         -6.5426070466        2.5610244947       -0.3612635417
 H         -7.1540380358        1.0539190395        0.3118455668
 C         -5.2686221466        1.6823712570        1.1251949360
 H         -4.7643245197        0.7283067024        1.2884788171
 H         -5.8491401148        1.8974049828        2.0246760531
 C         -4.2336325319        2.8005288506        0.9310951525
 H         -4.5777079919        3.4585177928        0.1325979985
 H         -4.1925817138        3.4080121168        1.8371813049
 C         -2.7928408719        2.3439087024        0.6317678170
 H         -2.3225037133        3.0798135049       -0.0269617127
 H         -2.2133730370        2.3246436956        1.5592587273
 H         -6.4782518142        0.8788116550       -2.0552032402
 H         -5.6771636904       -0.2864653868       -1.0065615076
 H         -4.2840218572        0.9262187221       -2.8283898825
 H         -4.2546396873        2.3010958144       -1.7083160170
 O         -3.0620569594       -0.7185040337       -1.5543939300
 C         -2.1705593821       -1.6131109336       -0.9822546847
 O         -2.1123016084       -2.7045780449       -1.5800064846
 O         -0.9475524801        0.5157205279        1.6734779285
 C         -0.4827861557       -2.1220107331        0.8548200676
 C          0.8421319873       -2.0851587026        0.1330544370
 C          1.0219815029       -2.7031228834       -1.1000570790
 C          2.2345086450       -2.6123946533       -1.7599695011
 C          3.2910219211       -1.9094409260       -1.2066537950
 C          3.1180149246       -1.2834091003        0.0197514312
 C          1.9011682675       -1.3753789035        0.6823015318
 H          1.7653813347       -0.8693496694        1.6289020955
 N          4.1911445273       -0.5468873762        0.5721712239
 S          4.5624695515        0.8920692403       -0.2009703830
 O          4.8197733130        0.6175144414       -1.5907345751
 O          5.6474612272        1.4763167004        0.5528029392
 C          3.0981368322        1.8953871210       -0.0264649380
 C          2.0067075355        1.6330052969       -0.8307536897
 C          0.8491280303        2.3717150662       -0.6467608439
 C          0.8039093055        3.3531640973        0.3306785761
 C          1.9071152720        3.6020640974        1.1317988460
 C          3.0651340875        2.8625813483        0.9580790108
 H          3.9468526078        3.0213475565        1.5581527643
 H          1.8641187798        4.3643718484        1.8930357524
 H         -0.0996971472        3.9239092228        0.4731597278
 H         -0.0158648545        2.1685768393       -1.2591257183
 H          2.0756149723        0.8648697031       -1.5849112520
 H          4.0764368502       -0.3617826551        1.5595973391
 H          4.2355807724       -1.8158106641       -1.7168696451
 H          2.3590487593       -3.0947964046       -2.7177779252
 H          0.1950990416       -3.2308366556       -1.5492284719
 H         -0.3322645304       -1.6738414235        1.8461910581
 C         -0.9903678992       -3.5367565874        1.0432932807
 C         -0.3378581132       -4.4057728504        2.0749353403
 C         -1.7263077045       -3.8885630589        2.2998300492
 H         -2.5530599206       -4.5799105429        2.2352554823
 H         -1.8672034529       -3.1085985998        3.0340302818
 H         -0.2078456476       -5.4545111940        1.8567932939
 H          0.4635912330       -3.9757751760        2.6566619199
 H         -1.3246200709       -4.0064881721        0.1281960870
