  62
        -98.92955958
 C         -2.3682450292       -0.9414129107        0.8012851494
 C         -2.8211379893       -0.4926851905       -0.4625933705
 C         -3.7429915993        0.6629477695       -0.4590836803
 C         -4.0572571992        1.2622471393        0.7034096398
 C         -4.9988501092        2.4056484893        1.0202696301
 C         -5.5679248593        3.2807607494       -0.0930833497
 C         -4.5410437394        4.1718144495       -0.7918394797
 H         -5.0294640195        4.6586035796       -1.6386687696
 H         -4.2287872193        4.9528797894       -0.0940553097
 C         -3.2803158694        3.4650434796       -1.2836738199
 H         -2.7401827493        3.0433334195       -0.4335191301
 H         -2.6295266695        4.2180530897       -1.7363768399
 C         -3.5077988095        2.3666843097       -2.3200453001
 H         -2.5274218496        2.0519461198       -2.6885279502
 H         -4.0691280896        2.7693430598       -3.1655551400
 C         -4.2319145295        1.1109898197       -1.8066248702
 H         -5.3100750795        1.2525664696       -1.7971679600
 H         -4.0140789095        0.2925186298       -2.4992145403
 H         -6.3090597793        3.9353993293        0.3735374104
 H         -6.1003236194        2.6699588395       -0.8162274098
 H         -4.4690914291        3.0389934992        1.7390084001
 H         -5.8345447891        1.9545524092        1.5668896601
 O         -3.5344540691        0.8365062892        1.8919001097
 C         -2.6871789290       -0.2526797808        1.9727478395
 O         -2.2820727189       -0.4979373910        3.1272863294
 O         -2.4985822294       -1.0264603803       -1.5538631406
 C         -1.4561449091       -2.1466509907        0.9554071591
 C         -0.3128194392       -2.0728050905       -0.0263936810
 C         -0.1753881193       -2.9343620504       -1.1059383411
 C          0.8992670406       -2.8071395602       -1.9684580012
 C          1.8579336306       -1.8306581602       -1.7714095312
 C          1.7344998807       -0.9679155304       -0.6899294910
 C          0.6562008508       -1.0970478905        0.1732884391
 H          0.5541903909       -0.4224425006        1.0153603092
 N          2.7041936007        0.0331315796       -0.4836679010
 S          4.3195508507       -0.4406797703       -0.6470269612
 O          4.6701877505       -0.3893782002       -2.0442771013
 O          4.5315795208       -1.7109464604        0.0100238686
 C          5.1610304808        0.8607354796        0.2323643489
 C          5.5256667809        0.6573502694        1.5497857588
 C          6.1656113409        1.6791057593        2.2335279889
 C          6.4259353109        2.8809456294        1.5924392590
 C          6.0534957607        3.0700917896        0.2697320891
 C          5.4144618407        2.0522946396       -0.4202936210
 H          5.1164726206        2.1502361498       -1.4511109610
 H          6.2604869807        4.0050363896       -0.2254450608
 H          6.9252766709        3.6738398993        2.1265883090
 H          6.4590648011        1.5335937092        3.2607294488
 H          5.3119369810       -0.2965497107        2.0050413387
 H          2.5595457308        0.5257946695        0.3872657991
 H          2.7022920605       -1.7277164801       -2.4341182112
 H          0.9913734805       -3.4776514901       -2.8097940713
 H         -0.9236612893       -3.6885282304       -1.2858721311
 H         -1.0312018290       -2.0486779608        1.9681363391
 C         -2.1820444791       -3.4836977307        0.9243811290
 C         -3.5554996690       -3.6201081008        1.5092352792
 C         -3.3531506792       -3.7558840306        0.0314075491
 H         -3.4407773292       -4.7390082505       -0.4078000110
 H         -3.6919523893       -2.9599676705       -0.6121075107
 H         -3.7845787690       -4.5050099508        2.0836528891
 H         -4.0289693090       -2.7228938008        1.8814206193
 H         -1.5010180291       -4.3114326107        1.0987524189
