  62
        -98.94618019
 C          1.4023371543        1.1396662426       -0.1493557831
 C          2.5288303184        1.1816423220        0.7098971855
 C          3.2732978757       -0.0749338743        0.8602127606
 C          2.8321028529       -1.1779255194        0.2281120038
 C          3.5101652022       -2.5161435632        0.2722127383
 C          4.5089071888       -2.6717171023       -0.8828080436
 C          5.4645715438       -1.4882801329       -1.0339890309
 H          6.1432799085       -1.7205518847       -1.8575648209
 H          4.8941010435       -0.6042381414       -1.3276722729
 C          6.2814878697       -1.1670981681        0.2254605034
 H          6.2762272335       -2.0241355400        0.8999771474
 H          7.3192478727       -0.9915160214       -0.0659293742
 C          5.8164574625        0.0774758339        0.9842239711
 H          6.5857146521        0.3355515084        1.7170710327
 H          5.7313232171        0.9182714456        0.2910653320
 C          4.4898384335       -0.0589600124        1.7423985342
 H          4.3827644671        0.8196854251        2.3852560742
 H          4.5193839435       -0.9461964788        2.3781881766
 H          5.0826634355       -3.5865418614       -0.7232976546
 H          3.9484725303       -2.7793368914       -1.8141638385
 H          2.7488894400       -3.2930133608        0.1889619295
 H          4.0227787639       -2.6264184545        1.2257556421
 O          1.7344974180       -1.1864332483       -0.5674616406
 C          0.9955640122       -0.0336159965       -0.7873023278
 O          0.0296691654       -0.1906296406       -1.5563975994
 O          2.8922047158        2.2209765354        1.3228113786
 C          0.5775391312        2.4075007050       -0.3073732109
 C         -0.7403985405        2.1552747301        0.3796247691
 C         -0.8224302538        2.2857172276        1.7632625760
 C         -1.9827876844        1.9543014609        2.4376164136
 C         -3.0804673734        1.4669632599        1.7486220750
 C         -3.0027488611        1.3233533693        0.3701145248
 C         -1.8489090647        1.6882390900       -0.3097989560
 H         -1.8040833761        1.5641245281       -1.3797566585
 N         -4.1021384684        0.7871590328       -0.3363915112
 S         -4.5310744097       -0.7863417894        0.0475540972
 O         -5.4642778265       -1.1902179340       -0.9799534235
 O         -5.0277256070       -0.8133635689        1.4007193250
 C         -3.0368954555       -1.7529451644       -0.0699340689
 C         -2.7598263875       -2.4041140775       -1.2543161731
 C         -1.5868583337       -3.1315579522       -1.3613537405
 C         -0.7099095856       -3.1854957761       -0.2905484497
 C         -0.9971950777       -2.5180545316        0.8890649603
 C         -2.1720736000       -1.7937053055        1.0048806526
 H         -2.4286370452       -1.2656173434        1.9091574906
 H         -0.3048863344       -2.5502060333        1.7162117533
 H          0.2091942662       -3.7427537170       -0.3804373987
 H         -1.3534024860       -3.6435647171       -2.2810820729
 H         -3.4692457907       -2.3367238370       -2.0637418652
 H         -3.9862805585        0.8528244421       -1.3386139059
 H         -3.9830956201        1.1728456945        2.2592403859
 H         -2.0328909815        2.0673595051        3.5101627187
 H          0.0445910864        2.6357321078        2.3060282351
 H          1.1182661600        3.1816812549        0.2527502827
 C          0.4516557968        2.8456976893       -1.7505478096
 C         -0.0508221146        4.2247341836       -2.0542988464
 C          1.3898628002        3.8839677535       -2.2855868437
 H          1.7405627646        3.7860540326       -3.3021111367
 H          2.1264870055        4.2900146632       -1.6078981942
 H         -0.6909104213        4.3648239582       -2.9119831502
 H         -0.2934219339        4.8611522243       -1.2167431654
 H          0.1705307910        2.0440123685       -2.4222826118
