  62
        -98.94393629
 C          1.7796153492        1.2053047109        0.4007314693
 C          1.9264021990        0.2809611004       -0.6613680103
 C          3.3062593789        0.0372972603       -1.1090052706
 C          4.3184423590        0.7029813107       -0.5235166312
 C          5.7719607790        0.5098614707       -0.8434581515
 C          6.4004680693       -0.5600397488        0.0603042088
 C          5.5939370895       -1.8566065689        0.1350200097
 H          6.1471987297       -2.5478670785        0.7744996998
 H          4.6397551996       -1.6568885387        0.6282607998
 C          5.3293796492       -2.5188030995       -1.2243710400
 H          6.0244086889       -2.1283453198       -1.9686066603
 H          5.5187363993       -3.5905648195       -1.1346660795
 C          3.8968517390       -2.3626032899       -1.7387981296
 H          3.1908203093       -2.6673924196       -0.9614963593
 H          3.7629438488       -3.0431056603       -2.5841679993
 C          3.5076508387       -0.9578851902       -2.2167586402
 H          4.2467404185       -0.5950502704       -2.9340711305
 H          2.5427744286       -1.0378486105       -2.7264495499
 H          7.4054125392       -0.7755935689       -0.3069533813
 H          6.4875174796       -0.1527312583        1.0702098986
 H          5.8741324387        0.2238688702       -1.8883383914
 H          6.2885512589        1.4575183008       -0.6825964521
 O          4.1338346192        1.6036865711        0.4751392985
 C          2.8678287993        1.8638225412        0.9734446987
 O          2.8420767995        2.6869808717        1.9106413483
 H         -2.0772299407        0.3851119005        0.4647695808
 C         -1.4872071304       -0.1863061691        1.1599316509
 C         -0.2151613504        0.2376087012        1.5089004003
 C          0.5132110300       -0.5222242483        2.4216266005
 C         -0.0159143698       -1.6780342481        2.9606462211
 C         -1.2815299598       -2.1053896684        2.5964744017
 C         -2.0184600501       -1.3553638089        1.6898613915
 N         -3.3210211102       -1.7374873392        1.3257436121
 S         -3.7266449806       -1.8131678400       -0.3025071378
 O         -4.9143041206       -2.6422668901       -0.3300435171
 O         -2.6198220708       -2.2680754803       -1.1093235379
 C         -4.1862473609       -0.1506577003       -0.7393955184
 C         -5.2093536308        0.4531843100       -0.0351222384
 C         -5.5963618610        1.7362132498       -0.3870085089
 C         -4.9618491614        2.3863073993       -1.4351100694
 C         -3.9378734415        1.7643377291       -2.1339767194
 C         -3.5433395313        0.4820590593       -1.7848766689
 H         -2.7418082814       -0.0344381208       -2.2901426189
 H         -3.4422327318        2.2720794888       -2.9463730897
 H         -5.2642604016        3.3849747792       -1.7090894197
 H         -6.3900901809        2.2253161699        0.1541129811
 H         -5.6819039605       -0.0895225397        0.7662512020
 H         -3.6591069200       -2.5600278090        1.8056432126
 H         -1.6941926896       -3.0125845883        3.0117991022
 H          0.5616968905       -2.2560471277        3.6665963012
 H          1.5037092300       -0.1896858781        2.7028997200
 C          0.4016108094        1.5034335110        0.9644325496
 H          0.5657449795        2.1872422214        1.8103595192
 C         -0.4578573010        2.2046989104       -0.0659382305
 C         -1.5503256810        3.1294119205        0.3776258993
 C         -0.3065505012        3.6838663204       -0.2477648713
 H         -0.3650618915        4.0880970099       -1.2469697914
 H          0.4071110289        4.1901909507        0.3861206583
 H         -1.6848370907        3.2652774710        1.4399786893
 H         -2.4674285811        3.1544429002       -0.1910655604
 H         -0.6191868812        1.6049389700       -0.9544113902
 O          0.9592795789       -0.3095956900       -1.2096952398
