  62
        -98.94556697
 C         -0.8273351215       -1.2593454092       -0.1276129840
 C         -1.5837611645       -0.7039954651        0.9371204599
 C         -2.5273971788        0.3634923471        0.5865859287
 C         -2.5793332100        0.7956296886       -0.6859254409
 C         -3.5318159354        1.8359068419       -1.2003455383
 C         -4.8237360847        1.1913239417       -1.7223916333
 C         -5.4483469944        0.1886400113       -0.7516739240
 H         -6.3692360322       -0.1769033525       -1.2112444405
 H         -4.7798302473       -0.6690712784       -0.6473347548
 C         -5.7617310533        0.7595871476        0.6386351033
 H         -6.7602982531        0.4306374260        0.9338571252
 H         -5.7802301029        1.8491248605        0.5956079305
 C         -4.8003455980        0.3107379286        1.7411141350
 H         -4.7083290124       -0.7780285916        1.7246171629
 H         -5.2364922572        0.5876153209        2.7044600521
 C         -3.3916923120        0.9157073799        1.6848619475
 H         -3.4654637742        2.0023909114        1.6135235943
 H         -2.8825295631        0.6630871045        2.6189785220
 H         -4.5978729940        0.6697288608       -2.6555047707
 H         -5.5412261528        1.9841075519       -1.9423039998
 H         -3.0483685863        2.3739491310       -2.0179191001
 H         -3.7662182746        2.5380075770       -0.4022163971
 O         -1.7905918331        0.2927514034       -1.6674916790
 C         -0.9157771957       -0.7618361139       -1.4287879201
 O         -0.3050330116       -1.1358542819       -2.4485682715
 O         -1.4852880483       -1.1025657502        2.1281733737
 C          0.0768799503       -2.4225589510        0.2318985388
 C          1.4903354068       -1.9952088787        0.5512056884
 C          2.1897212496       -2.6234659293        1.5768604013
 C          3.4943228011       -2.2680635307        1.8636619528
 C          4.1188989734       -1.2614093518        1.1498354346
 C          3.4261288054       -0.6207490818        0.1291852922
 C          2.1243417020       -0.9973953574       -0.1736886180
 H          1.6143902352       -0.5090211955       -0.9897477520
 N          4.0252658393        0.4205130746       -0.5936223653
 S          3.1038188958        1.7178399062       -1.0945250822
 O          2.4246173967        1.4178805873       -2.3286323279
 O          4.0492313247        2.8149620095       -1.1591696523
 C          1.9221275395        2.0418951156        0.2038886214
 C          0.6350738851        2.3880228711       -0.1506643204
 C         -0.2712309833        2.7188863148        0.8437130080
 C          0.1165325872        2.6756068238        2.1729288849
 C          1.4116575202        2.3198838133        2.5147151455
 C          2.3289554925        2.0124249432        1.5232722541
 H          3.3456747686        1.7507543762        1.7661394209
 H          1.7102747503        2.2849147801        3.5499080718
 H         -0.5957471889        2.9204576250        2.9446414527
 H         -1.2746167637        3.0048383266        0.5743745823
 H          0.3651670999        2.3829566140       -1.1956331601
 H          4.9328041582        0.7105392640       -0.2593989804
 H          5.1331798426       -0.9708905464        1.3766315923
 H          4.0264287513       -2.7678599122        2.6582140227
 H          1.6996459889       -3.3909176391        2.1561633115
 H         -0.3510080832       -2.8440486384        1.1527604691
 C          0.1084077840       -3.5155678578       -0.8208060073
 C          0.3469737329       -4.9362371727       -0.4100809929
 C         -1.0102358659       -4.5103559528       -0.8820627812
 H         -1.3533558431       -4.8384617263       -1.8516314757
 H         -1.7988582890       -4.4186172435       -0.1491682066
 H          0.9429044683       -5.5627054144       -1.0557102757
 H          0.4704601360       -5.1446947842        0.6413947672
 H          0.5300262261       -3.1850639015       -1.7617110567
