  62
        -98.93932904
 C         -1.9052596696       -0.8240080802        0.2504294801
 C         -2.3028629298        0.2067073793        1.1383241106
 C         -2.8292326902        1.4305146495        0.5213150912
 C         -2.8327982004        1.5383735900       -0.8194805988
 C         -3.3940637608        2.7004625902       -1.5856561882
 C         -4.8745698107        2.4764032200       -1.9258383781
 C         -5.7241992705        2.0387051592       -0.7326653082
 H         -6.7529340105        1.9388996091       -1.0852276981
 H         -5.3985347802        1.0477764092       -0.4078449487
 C         -5.6843233506        3.0010324187        0.4626341122
 H         -6.7022333106        3.1449563683        0.8307063924
 H         -5.3141922409        3.9752297690        0.1415598726
 C         -4.8492608603        2.5087173484        1.6462354619
 H         -5.1557883700        1.4945836182        1.9153328815
 H         -5.0610251404        3.1524926980        2.5040084722
 C         -3.3293446404        2.5117728789        1.4373424117
 H         -3.0062508707        3.4939037892        1.0855755021
 H         -2.8574991502        2.3237228686        2.4065501216
 H         -5.2767746110        3.4022410100       -2.3408619977
 H         -4.9388843506        1.7023070603       -2.6939224084
 H         -3.2775100609        3.6073394000       -0.9953555578
 H         -2.8274686309        2.8059948308       -2.5122786282
 O         -2.3647257802        0.5639358305       -1.6387776592
 C         -1.8942463598       -0.6413770996       -1.1328801698
 O         -1.5086036497       -1.4367331091       -2.0098369702
 O         -2.2251692996        0.1040524088        2.3934450606
 C         -1.3799200592       -2.1119124303        0.8563677495
 C         -0.0796243392       -2.5115368697        0.2034979492
 C          0.1780949811       -3.7815567694       -0.2941672414
 C          1.4078539811       -4.0743997988       -0.8587463117
 C          2.4003862709       -3.1168166985       -0.9358028114
 C          2.1480453506       -1.8365387588       -0.4513533608
 C          0.9215689306       -1.5504873994        0.1222657395
 H          0.7351735603       -0.5553175396        0.5025460099
 N          3.1210077003       -0.8306564785       -0.5669273505
 S          3.0926186601        0.4991634511        0.4617676401
 O          2.9914606603        0.0689127204        1.8394133399
 O          2.0866173598        1.4259167110        0.0034031106
 C          4.7175867798        1.1650575816        0.1520807602
 C          5.7581615900        0.8267924915        0.9968085500
 C          7.0256295199        1.3209906420        0.7314527100
 C          7.2306817395        2.1392051025       -0.3692834096
 C          6.1763683693        2.4718697926       -1.2069696694
 C          4.9064768195        1.9813832322       -0.9469900494
 H          4.0549353694        2.2185201722       -1.5636013292
 H          6.3383749791        3.1108685830       -2.0599820891
 H          8.2176573794        2.5225627729       -0.5743052896
 H          7.8461109300        1.0669245319        1.3829309798
 H          5.5485283703        0.1959919511        1.8456073597
 H          4.0541645204       -1.1876462882       -0.7166440907
 H          3.3566697809       -3.3466804081       -1.3800577116
 H          1.5947097714       -5.0653100186       -1.2441299221
 H         -0.5871878987       -4.5390592796       -0.2577283616
 H         -1.1520337191       -1.8442420507        1.9034085696
 C         -2.4046439289       -3.2362628206        0.9103735891
 C         -3.8749005490       -2.9489207110        0.8614409294
 C         -3.2080266889       -3.6376704603       -0.2891379210
 H         -3.4107651187       -4.6874467403       -0.4428088014
 H         -3.0481492992       -3.0831443299       -1.2003136507
 H         -4.5303462587       -3.5227651614        1.4993510592
 H         -4.1797407693       -1.9200122310        0.7345887699
 H         -2.0982745886       -4.0331608308        1.5811056087
