  62
        -98.94265497
 C         -1.4225445531       -1.4897201318        0.3068326122
 C         -1.9421197004       -1.0074193823       -0.9198149135
 C         -2.8966950481        0.1080877254       -0.8147561135
 C         -3.2125906487        0.6000203835        0.3968742877
 C         -4.1307221560        1.7625950493        0.6379841102
 C         -3.3586221038        3.0885543755        0.6733797446
 C         -2.3996570371        3.2757970163       -0.5022321543
 H         -1.9306735076        4.2556106530       -0.3898483013
 H         -1.6044741003        2.5290528473       -0.4367002313
 C         -3.0658372182        3.1892267496       -1.8826378185
 H         -4.1434078364        3.3254601886       -1.7841644014
 H         -2.6919803263        4.0055683813       -2.5043901064
 C         -2.7891446061        1.8901645366       -2.6415923997
 H         -1.7121481371        1.7040065556       -2.6702808770
 H         -3.1226363229        2.0224924418       -3.6744381521
 C         -3.4819823610        0.6356152504       -2.0947878062
 H         -4.5508127656        0.8274410038       -1.9800336299
 H         -3.3538634375       -0.1615241940       -2.8332875964
 H         -4.0800096651        3.9074207712        0.6900888594
 H         -2.7801111465        3.1246438896        1.5986028061
 H         -4.8854810098        1.7901237737       -0.1456815228
 H         -4.6255670804        1.6148489204        1.5993172017
 O         -2.6938308787        0.1114690241        1.5511901087
 C         -1.7974188658       -0.9439625225        1.5363225962
 O         -1.4127546363       -1.3064717490        2.6651581608
 O         -1.6279833582       -1.4681315102       -2.0489465920
 C         -0.4413529068       -2.6416113391        0.3557997044
 C          0.9378908739       -2.2876457090       -0.1545541668
 C          1.9649427051       -3.2245286261       -0.0692665533
 C          3.2478518177       -2.9148574417       -0.4814551660
 C          3.5394050634       -1.6631641428       -0.9966514052
 C          2.5214602530       -0.7287424555       -1.0999167322
 C          1.2362653953       -1.0379049988       -0.6733630965
 H          0.4607662765       -0.2876568816       -0.7495682716
 N          2.8253680024        0.5628834502       -1.5999346353
 S          3.5202538893        1.5772184781       -0.4604004803
 O          3.6933744071        2.8560168984       -1.1094184868
 O          4.7103056939        0.9417605657        0.0419128088
 C          2.2914526157        1.7073984239        0.8256177578
 C          1.4171070985        2.7753987357        0.8083797589
 C          0.4020736556        2.8256093513        1.7502652841
 C          0.2639153259        1.7980038120        2.6704280788
 C          1.1470218731        0.7294108656        2.6722290785
 C          2.1748485450        0.6820218310        1.7439156416
 H          2.8854791974       -0.1285589084        1.7219470847
 H          1.0162599702       -0.0751380723        3.3779507065
 H         -0.5414452796        1.8163248495        3.3881484615
 H         -0.2806852968        3.6601591961        1.7584940743
 H          1.5533597459        3.5478033539        0.0681548997
 H          2.0214209512        1.0288635489       -1.9979274385
 H          4.5356860310       -1.3918658706       -1.3044297490
 H          4.0310340548       -3.6525816871       -0.3986930582
 H          1.7520677547       -4.2024788664        0.3326207339
 H         -0.3378548975       -2.8975485577        1.4206237153
 C         -0.9840820935       -3.8579572284       -0.3774612191
 C         -0.8103221146       -5.2338210664        0.1886525440
 C         -2.1613699698       -4.5863422685        0.1961434084
 H         -2.9210716626       -4.9516813213       -0.4781733796
 H         -2.5504171385       -4.2314410567        1.1399858696
 H         -0.6359807079       -6.0519930344       -0.4934159002
 H         -0.3041847738       -5.3325106242        1.1373934193
 H         -0.9518882504       -3.7450833124       -1.4543555795
