  62
        -98.93370448
 C          2.1369045520        0.4001328514        0.3890885727
 C          3.2098460474        0.6712097180       -0.4924882690
 C          4.2258135108       -0.3889258853       -0.6419656643
 C          4.0916194465       -1.5441921549        0.0336055927
 C          4.9409914097       -2.7981345192        0.0433109540
 C          6.3684063800       -2.7805888672       -0.4989925596
 C          7.3488972670       -1.9209402122        0.2977159107
 H          8.3053362854       -1.9195623549       -0.2297497653
 H          7.5076254542       -2.3869873196        1.2734612340
 C          6.9149323184       -0.4775692058        0.5412864363
 H          7.7108826258        0.0200816978        1.1020403957
 H          6.0227929044       -0.4637033625        1.1709655671
 C          6.6472017362        0.3464378587       -0.7168040120
 H          7.5156362357        0.3026906322       -1.3767482851
 H          6.5147092326        1.3858883065       -0.4054173107
 C          5.3979308190       -0.0566337762       -1.5201814143
 H          5.6102445237       -0.8776329090       -2.2005057910
 H          5.0947049085        0.8021519519       -2.1255580614
 H          6.3710895641       -2.4879696971       -1.5447438843
 H          6.7269533161       -3.8128070069       -0.4582255745
 H          4.3691575364       -3.5500265075       -0.5120118577
 H          4.9584031347       -3.1334867490        1.0851784685
 O          3.0235445164       -1.7728600226        0.8543625679
 C          2.0449415558       -0.8203454499        1.0625226506
 O          1.1591949475       -1.1712839819        1.8699850744
 O          3.3412196411        1.7414345347       -1.1426742546
 C          1.0242452208        1.3932101563        0.6861524271
 C         -0.0238410637        1.4007822691       -0.4015668770
 C          0.2706882614        1.8159957657       -1.6961443939
 C         -0.7122857844        1.8188080756       -2.6683558464
 C         -2.0013317429        1.4140280624       -2.3711756245
 C         -2.3085902759        1.0051028023       -1.0783518452
 C         -1.3189734580        0.9995232354       -0.1052501278
 H         -1.5628660134        0.6591373283        0.8902333543
 N         -3.6255495548        0.6418033686       -0.7459389612
 S         -3.9018920567       -0.5629572416        0.4023810277
 O         -3.6723685403       -0.0162128767        1.7158680523
 O         -3.1673200683       -1.7604212975        0.0582859160
 C         -5.6508918389       -0.8132680234        0.1591778263
 C         -6.5258819441        0.1210370581        0.6811319032
 C         -7.8855594199       -0.0434194917        0.4709444241
 C         -8.3457844010       -1.1333517021       -0.2532905693
 C         -7.4562372548       -2.0641845818       -0.7680947418
 C         -6.0944594688       -1.9045810357       -0.5629699399
 H         -5.3661795887       -2.6057237998       -0.9380218660
 H         -7.8168917376       -2.9122485803       -1.3275350246
 H         -9.4046094067       -1.2594184178       -0.4153644005
 H         -8.5802080395        0.6768577643        0.8719973356
 H         -6.1223454539        0.9460161549        1.2444875825
 H         -4.2034492369        0.4976649952       -1.5634650286
 H         -2.7666591528        1.4174052591       -3.1325214190
 H         -0.4708689905        2.1367869066       -3.6714439537
 H          1.2784385953        2.1191815380       -1.9335098782
 H          0.5414739320        1.0248222859        1.6023804305
 C          1.5349264376        2.7976125322        0.9484066436
 C          0.6743583986        3.7443302693        1.7268876534
 C          1.9226436564        3.1867665447        2.3413965834
 H          2.7706540495        3.8412289683        2.4762342739
 H          1.8203017347        2.4393937300        3.1155067053
 H          0.6628543739        4.7845724855        1.4403138954
 H         -0.2752602131        3.3747407725        2.0851322527
 H          2.1251832151        3.2000230501        0.1362506923
