  62
        -98.93965622
 C          1.6150556095        1.4076275001       -0.3621130707
 C          1.4206435598        0.0287635300       -0.6033784506
 C          2.3327649700       -0.9079472497        0.0851220995
 C          3.3208099600       -0.4142532194        0.8520986494
 C          4.3888460502       -1.1712318691        1.5949281894
 C          5.4843326602       -1.7203412789        0.6645176594
 C          4.9794813103       -2.3340782192       -0.6391326205
 H          4.3843791601       -1.5934160994       -1.1762339206
 H          5.8514135503       -2.5613572691       -1.2580710606
 C          4.1698069906       -3.6190740394       -0.4842826703
 H          3.9280591706       -3.9749823595       -1.4889151603
 H          4.7910254408       -4.3780615992       -0.0032146303
 C          2.8646518206       -3.4941349796        0.3038198498
 H          3.0576802607       -3.4284628694        1.3713198397
 H          2.2989472408       -4.4179973397        0.1495314599
 C          1.9548381303       -2.3522646298       -0.1384643603
 H          1.7553288703       -2.4507415900       -1.2115261203
 H          0.9817452904       -2.4706662000        0.3577692498
 H          6.0667956504       -2.4596761687        1.2166568394
 H          6.1486210100       -0.8926020788        0.4047510292
 H          3.9373419404       -1.9671267491        2.1804795795
 H          4.8461421801       -0.4660603089        2.2927227693
 O          3.5100953697        0.9270942507        1.0128596092
 C          2.6550018594        1.8552475404        0.4568514791
 O          2.9284303492        3.0394982705        0.7437009790
 O          0.5347104498       -0.4373376903       -1.3682871004
 C          0.6949260792        2.4980098198       -0.8918168208
 C         -0.4874329508        2.6409210697        0.0387894793
 C         -0.7188422610        3.8345708397        0.7113598491
 C         -1.7696354810        3.9444296196        1.6047731692
 C         -2.5891413107        2.8609010394        1.8597082494
 C         -2.3661959105        1.6599532394        1.1921054195
 C         -1.3388460905        1.5675009095        0.2657019194
 H         -1.1702876904        0.6359365795       -0.2463413305
 N         -3.1867151402        0.5530570092        1.4415341197
 S         -2.6239248399       -1.0293913306        1.4463746398
 O         -3.3919587797       -1.6708490807        2.4963937500
 O         -1.1895674098       -1.0940871403        1.5834868797
 C         -3.1861244998       -1.6707898409       -0.1170213000
 C         -2.3201944799       -1.8306017009       -1.1784815201
 C         -2.8190587198       -2.3210195111       -2.3768362600
 C         -4.1620857098       -2.6408168114       -2.4932866499
 C         -5.0191032697       -2.4754532915       -1.4150362298
 C         -4.5287553798       -1.9863705612       -0.2163464799
 H         -5.1551171597       -1.8561501713        0.6505181601
 H         -6.0637610397       -2.7259857417       -1.5060287297
 H         -4.5418736098       -3.0219862416       -3.4282315098
 H         -2.1481979399       -2.4458643411       -3.2119476600
 H         -1.2787234999       -1.5675324506       -1.0721499402
 H         -3.8652361102        0.6936570592        2.1754120397
 H         -3.3933848807        2.9372420393        2.5759927794
 H         -1.9405402811        4.8766068496        2.1218455591
 H         -0.0553508012        4.6710833898        0.5471971890
 H          1.2764681190        3.4286268200       -0.8359593610
 C          0.2483403791        2.3007034796       -2.3261841808
 C         -0.1958672412        3.4948522894       -3.1144052409
 C          1.1047025489        2.8239585496       -3.4380203409
 H          1.1786037890        2.2453397895       -4.3463567208
 H          2.0209442389        3.3290897198       -3.1675358710
 H         -1.0190596212        3.3791576791       -3.8023118308
 H         -0.1606757614        4.4579468694       -2.6278621610
 H         -0.2664764307        1.3648170994       -2.4939485906
