  62
        -98.94528062
 C         -2.4874768976       -1.1786619443       -0.0175589073
 C         -3.1664365204       -0.3501783771        0.9069204187
 C         -3.7730386403        0.8687158096        0.3566145047
 C         -3.6461487870        1.1300419704       -0.9573845520
 C         -4.1538259138        2.3677126550       -1.6376366784
 C         -3.0796177111        3.4643227534       -1.6605852438
 C         -2.4258302273        3.7177866199       -0.3018696772
 H         -1.8491980287        2.8345171810       -0.0139534355
 H         -1.7083974941        4.5313238609       -0.4322640855
 C         -3.4108566928        4.0758594929        0.8203211893
 H         -3.0061159623        4.9197247027        1.3829463663
 H         -4.3595253197        4.3978293997        0.3896333076
 C         -3.6665881544        2.9515403205        1.8257690107
 H         -2.7113078343        2.5641872716        2.1901915634
 H         -4.1948292087        3.3765434395        2.6833230717
 C         -4.5019806022        1.7721060579        1.3114732466
 H         -4.7629422711        1.1503679806        2.1728744873
 H         -5.4249989836        2.1435161834        0.8625313554
 H         -2.2966919182        3.1697975616       -2.3637820910
 H         -3.5346374818        4.3873201981       -2.0243547473
 H         -4.4196212448        2.1116082923       -2.6644888565
 H         -5.0418125867        2.7244000699       -1.1195439723
 O         -2.9866453300        0.3112513506       -1.8154649246
 C         -2.3710523660       -0.8493306163       -1.3685552342
 O         -1.7744603860       -1.4868729142       -2.2557820713
 O         -3.2519437486       -0.6122844133        2.1380019286
 C         -1.7919560423       -2.4295605578        0.4924813374
 C         -0.3033937819       -2.2624479299        0.3078372133
 C          0.5000244259       -3.1603062815       -0.3806483684
 C          1.8504462481       -2.9035104334       -0.5488731772
 C          2.4274326523       -1.7578674534       -0.0331280395
 C          1.6338905912       -0.8570959007        0.6658972425
 C          0.2848616495       -1.1185748839        0.8356071386
 H         -0.3341717980       -0.4119591374        1.3761277125
 N          2.2136267007        0.3140538739        1.1970102193
 S          2.9192822445        1.3612493478        0.0835695996
 O          2.8823106832        2.6638240583        0.7130573625
 O          2.2916995875        1.2559385264       -1.2141091516
 C          4.6069195808        0.8018774458        0.0002304120
 C          5.1344941853        0.3803073253       -1.2043290724
 C          6.4499780694       -0.0557461441       -1.2427860878
 C          7.2092610491       -0.0621038851       -0.0826222571
 C          6.6648319415        0.3674691087        1.1187014898
 C          5.3510935240        0.8056863456        1.1639517081
 H          4.8898771849        1.1515090168        2.0738561047
 H          7.2587620126        0.3615733213        2.0183444831
 H          8.2316066246       -0.4040997078       -0.1152210539
 H          6.8746798589       -0.3897938231       -2.1757746520
 H          4.5024795691        0.3962225912       -2.0780802312
 H          1.5798983274        0.8323495678        1.7897382982
 H          3.4767617484       -1.5528091370       -0.1690015161
 H          2.4617924685       -3.6058856111       -1.0945139862
 H          0.0670377437       -4.0535503273       -0.7993178759
 H         -2.0016860480       -2.4599112106        1.5719776471
 C         -2.3580067266       -3.6763551027       -0.1503016767
 C         -2.2501425364       -4.9951950224        0.5535023199
 C         -3.5780250891       -4.3096297205        0.4460078865
 H         -4.3214059052       -4.7216981525       -0.2196453676
 H         -3.9926885274       -3.8518145510        1.3322935746
 H         -2.0834539387       -5.8828636868       -0.0374813626
 H         -1.7632106004       -5.0079448030        1.5167627750
 H         -2.2801177926       -3.6617298599       -1.2312293334
