  62
        -98.93702547
 C          2.6322575403        0.2693034030       -0.2069463019
 C          2.0269521962        0.9932018958        0.8473466794
 C          1.3741009500        2.2727346900        0.4937896110
 C          1.4522754137        2.7206615937       -0.7714758387
 C          0.8722870843        3.9763518631       -1.3698943906
 C         -0.6369190100        3.8755081487       -1.6279636939
 C         -1.4491930026        3.3207030005       -0.4612950538
 H         -2.4915749016        3.2552414825       -0.7869129707
 H         -1.1229751816        2.3007080971       -0.2469111558
 C         -1.4112646920        4.1555139750        0.8170670177
 H         -1.7438707205        5.1715597791        0.5920891486
 H         -2.1328820587        3.7103963297        1.5068697610
 C         -0.0618069892        4.2273269311        1.5377316761
 H          0.5999412837        4.9568169578        1.0773519564
 H         -0.2560377990        4.5815293809        2.5542760563
 C          0.6520709622        2.8862118534        1.6685065457
 H          1.4000209148        2.9574287805        2.4672051895
 H         -0.0637159962        2.1267574023        2.0088556474
 H         -0.7921170206        3.2125455028       -2.4827811536
 H         -1.0064469680        4.8681307848       -1.8936386766
 H          1.0968406578        4.8318547956       -0.7395539804
 H          1.3789550986        4.1239547186       -2.3266496402
 O          2.1164781949        2.0259451784       -1.7414345009
 C          2.6587147564        0.7813513677       -1.5053231625
 O          3.1612651139        0.2407375786       -2.5140332479
 H          0.6034525681       -0.9811624467        0.8074057982
 C          0.7948929565       -1.8808861251        0.2454449855
 C          2.0626916165       -2.1445169697       -0.2470765298
 C          2.2687685079       -3.3321989258       -0.9405348197
 C          1.2243529908       -4.2150222067       -1.1504847029
 C         -0.0528009480       -3.9166912861       -0.7086483587
 C         -0.2664452311       -2.7354651771       -0.0091337095
 N         -1.5420562390       -2.3576581452        0.4434133848
 S         -1.9195522540       -0.7117139836        0.2754802715
 O         -1.3370303048       -0.2009273708       -0.9442654567
 O         -1.5826491270       -0.0272033069        1.4970639427
 C         -3.6951728196       -0.7975721812        0.1234373431
 C         -4.4596546147       -0.8721555568        1.2725180597
 C         -5.8367524272       -0.9750047877        1.1554217480
 C         -6.4230799404       -1.0024907033       -0.1012945062
 C         -5.6431445918       -0.9246184835       -1.2454319398
 C         -4.2651009827       -0.8227724591       -1.1352577252
 H         -3.6182661244       -0.7499132697       -1.9950569861
 H         -6.1015664049       -0.9420676536       -2.2210321532
 H         -7.4949734553       -1.0822322304       -0.1897367644
 H         -6.4461562808       -1.0326122700        2.0427650858
 H         -3.9585878462       -0.8372973791        2.2258828749
 H         -2.2806302469       -2.9481809981        0.0850016757
 H         -0.8752085001       -4.5869953822       -0.9072831342
 H          1.3995111769       -5.1328494082       -1.6908878873
 H          3.2497239059       -3.5508666736       -1.3351487691
 C          3.1798075088       -1.1407570647       -0.0604039535
 H          3.8880172832       -1.2777129282       -0.8904268082
 C          3.9132227858       -1.3991222952        1.2410569518
 C          4.9912129170       -2.4385432847        1.2852812100
 C          5.3469219744       -0.9853427188        1.3718354136
 H          5.6805959504       -0.5850367255        2.3170294046
 H          5.8105220083       -0.5213238839        0.5131437014
 H          5.0823067423       -3.0440024522        2.1737769542
 H          5.2269067661       -2.9601801733        0.3703413761
 H          3.2824369183       -1.2863713649        2.1130474928
 O          2.0067860663        0.6115422988        2.0490243303
