  62
        -98.93807922
 C         -2.8886040236       -0.1117065088       -0.4113481096
 C         -2.2229682829       -0.3996656499        0.8080817324
 C         -1.8146477039       -1.7998833018        0.9889566597
 C         -2.1921818778       -2.7328449996        0.0972467727
 C         -1.8365900720       -4.1936542315        0.1380455046
 C         -0.4802666836       -4.5040997409       -0.5111910404
 C          0.7424967336       -4.0430254634        0.2837508550
 H          0.6768743027       -4.4275158531        1.3017634355
 H          1.6177297883       -4.4983660433       -0.1829947962
 C          0.9427241443       -2.5200992649        0.3229423343
 H          1.9890389159       -2.2831566391        0.1139645818
 H          0.3453693167       -2.0531176306       -0.4648132404
 C          0.5881082950       -1.8730100182        1.6631394566
 H          1.2522227970       -2.2576597511        2.4406024175
 H          0.7562882632       -0.7936060848        1.5881822643
 C         -0.8646877931       -2.1033225202        2.1074459666
 H         -0.9945826307       -3.1274140712        2.4564991282
 H         -1.0837816182       -1.4192030974        2.9306472575
 H         -0.4602486306       -4.0530279769       -1.5061680924
 H         -0.4175919827       -5.5872689602       -0.6361759985
 H         -1.8416345443       -4.5477508968        1.1686439410
 H         -2.6140579546       -4.7219403706       -0.4177168686
 O         -2.9608912936       -2.4367356032       -0.9850393881
 C         -3.2448736561       -1.1180153866       -1.3112357223
 O         -3.8115077032       -0.9748572125       -2.4130384561
 H         -0.6149203431        0.5784909981       -1.3457812220
 C         -0.6419502747        1.5633696432       -0.8935784781
 C         -1.8720261035        2.1290784167       -0.5779274641
 C         -1.8846427153        3.3905286216        0.0006911697
 C         -0.6971717331        4.0510028470        0.2694370278
 C          0.5232037909        3.4691665423       -0.0167850975
 C          0.5478022441        2.2060082047       -0.5941554019
 N          1.7819204335        1.5855380665       -0.8778118730
 S          2.9432869339        1.6580468382        0.3516344721
 O          2.3461465081        1.3887620380        1.6383334217
 O          3.6351480094        2.9186813476        0.2311941666
 C          4.0357428607        0.3327048823       -0.1211596558
 C          4.1533333314       -0.7770396624        0.6928010363
 C          4.9979910983       -1.8062380481        0.3048831966
 C          5.7045586584       -1.7076805791       -0.8838225812
 C          5.5783441698       -0.5846678284       -1.6888183077
 C          4.7371926317        0.4480371989       -1.3068354000
 H          4.6150231953        1.3414679143       -1.8964726263
 H          6.1325990131       -0.5108301496       -2.6104762849
 H          6.3602969851       -2.5097870960       -1.1834787831
 H          5.0991422348       -2.6783081074        0.9306672484
 H          3.5859825983       -0.8062705920        1.6093054258
 H          1.6541500344        0.6275446795       -1.1768383830
 H          1.4537536429        3.9595029213        0.2206450727
 H         -0.7229319535        5.0287910191        0.7268332416
 H         -2.8211320128        3.8502797183        0.2702648511
 C         -3.1180836642        1.3203621263       -0.8644592480
 H         -3.2330049437        1.2560052741       -1.9599795722
 C         -4.3923724867        1.9620146628       -0.3356706899
 C         -5.5275193032        1.1260030883        0.1735501823
 C         -4.7280907840        1.9624345195        1.1243744999
 H         -5.1908738292        2.8432223193        1.5451771803
 H         -4.0360891887        1.4700231165        1.7891393195
 H         -6.5346763239        1.4334786531       -0.0653151854
 H         -5.3923757197        0.0542334400        0.1945218070
 H         -4.6704689865        2.8456487934       -0.9015952020
 O         -1.9504943863        0.4559224028        1.6878952713
