  62
        -98.93706469
 C         -1.6941231602       -1.0689956370        0.2789357728
 C         -2.8977828591       -0.9523183235        1.0210573154
 C         -3.6820237174        0.2805149138        0.8356175943
 C         -3.1991050451        1.2429101337        0.0317141145
 C         -3.8479397241        2.5509463730       -0.3270955795
 C         -4.6548952722        2.4175643458       -1.6298171121
 C         -6.0964223349        1.9436317166       -1.4492446579
 H         -6.6817377042        2.7422135508       -0.9885453067
 H         -6.5086467475        1.7692975328       -2.4458714961
 C         -6.2673673031        0.6699875107       -0.6170435916
 H         -7.2384665791        0.2364567409       -0.8640501080
 H         -5.5073906949       -0.0601492310       -0.9016634785
 C         -6.2075913666        0.9249589628        0.8965496404
 H         -7.0794117855        0.4724261643        1.3736616472
 H         -6.2776496933        1.9969485988        1.0801307879
 C         -4.9703777476        0.3583642437        1.6083832440
 H         -4.7932316235        0.9305154005        2.5252994136
 H         -5.1700361766       -0.6716695748        1.9204362584
 H         -4.1202218531        1.7268090546       -2.2871002732
 H         -4.6790760216        3.3886305003       -2.1285165962
 H         -3.0395010055        3.2660739462       -0.4919444917
 H         -4.4713303093        2.9089788244        0.4867370062
 O         -2.0188704496        1.1124809827       -0.6296182736
 C         -1.2450302250       -0.0368574666       -0.5469847412
 O         -0.2178833804        0.0105675223       -1.2477183901
 O         -3.3069787057       -1.8489326196        1.8062500943
 C         -0.8779730260       -2.3351287071        0.4831768362
 C          0.5398749924       -1.9637302514        0.8292247199
 C          0.8634453699       -1.6091718381        2.1353581012
 C          2.1434822916       -1.1981696518        2.4587549924
 C          3.1180280971       -1.1021107745        1.4805910369
 C          2.7954920390       -1.4314984144        0.1706264176
 C          1.5229360410       -1.8887036342       -0.1439794397
 H          1.2842523179       -2.1403405431       -1.1652587236
 N          3.7557332931       -1.2799341444       -0.8429341616
 S          4.7609981873        0.0530908599       -0.7858152297
 O          5.0994681093        0.3329934553       -2.1647081260
 O          5.8824306580       -0.2347882798        0.0770074636
 C          3.8273460632        1.4110130893       -0.0919533530
 C          4.4574967999        2.2336190503        0.8215681858
 C          3.7651532360        3.3106172970        1.3501667642
 C          2.4551854143        3.5453182911        0.9614745233
 C          1.8373060634        2.7099189655        0.0447165584
 C          2.5262018548        1.6347919625       -0.4947829988
 H          2.0341954912        0.9758770908       -1.1925207858
 H          0.8140462910        2.8735727676       -0.2555568664
 H          1.9116749909        4.3799178366        1.3759108364
 H          4.2458885309        3.9596523730        2.0643440921
 H          5.4726744534        2.0070784965        1.1051781578
 H          3.3846163907       -1.4125061919       -1.7725292849
 H          4.1184340573       -0.7727760192        1.7117778511
 H          2.3840561820       -0.9378819304        3.4781473368
 H          0.0954556985       -1.6529795255        2.8949651050
 H         -1.3337532530       -2.8119778608        1.3652528105
 C         -0.9648474666       -3.3478140388       -0.6490382334
 C         -2.2801703329       -3.6300813759       -1.3100087548
 C         -1.1794753706       -2.9707775815       -2.0829210085
 H         -0.6708385524       -3.5485852320       -2.8413260881
 H         -1.2748777649       -1.9245616010       -2.3267231584
 H         -2.5354383542       -4.6529598876       -1.5420645503
 H         -3.1237488612       -3.0260515254       -1.0088409827
 H         -0.3221509350       -4.2042001423       -0.4670858898
