  62
        -98.94023774
 C         -2.4852596278       -1.2575336734       -0.0710153130
 C         -2.3417639702       -0.0287633071       -0.7590846655
 C         -3.5844830820        0.7220694213       -0.9919240608
 C         -4.7544751759        0.2106354772       -0.5675053404
 C         -6.0824583527        0.9008098740       -0.6783410004
 C         -6.3738058086        1.7432726187        0.5717923297
 C         -5.2195880300        2.6563375921        0.9857067207
 H         -5.5490410662        3.2205719804        1.8608047633
 H         -4.3720756436        2.0424540418        1.2995896833
 C         -4.7583966524        3.6312237070       -0.1065946823
 H         -5.5300225404        3.7228383065       -0.8717632625
 H         -4.6237535122        4.6190460511        0.3389512852
 C         -3.4311027165        3.2582687455       -0.7698289182
 H         -3.0944359697        4.1125176698       -1.3635064771
 H         -2.6732667826        3.0758762822       -0.0030848091
 C         -3.4705582801        2.0412067710       -1.7026386730
 H         -2.5198226662        2.0078378349       -2.2434819796
 H         -4.2762373333        2.1596993506       -2.4301200077
 H         -7.2650390886        2.3442041895        0.3827267191
 H         -6.5889307623        1.0667728676        1.4020238773
 H         -6.0845539837        1.5325518238       -1.5642914577
 H         -6.8580427589        0.1403724015       -0.7821960313
 O         -4.8537417872       -0.9849131075        0.0680349556
 C         -3.7260118711       -1.7398581614        0.3452486235
 O         -3.9547340778       -2.8015121480        0.9591793355
 O         -1.2353950154        0.4229049405       -1.1575290423
 C         -1.2582923611       -2.0931105080        0.2502410710
 C         -0.3029805692       -1.2722536847        1.0823314102
 C         -0.7731411524       -0.7118814852        2.2681287011
 C          0.0495854976        0.0692044223        3.0548789021
 C          1.3566536220        0.3138968704        2.6710871154
 C          1.8402781999       -0.2501603210        1.4970968673
 C          1.0143438242       -1.0488255453        0.7163919114
 H          1.4101660722       -1.4671360325       -0.1928395452
 N          3.1816930194       -0.0498585550        1.1168168560
 S          3.5524808847        0.2974092075       -0.4951899800
 O          2.8675446099        1.4967150965       -0.9237275794
 O          3.3548998267       -0.8842432806       -1.2940771443
 C          5.2991235027        0.6225825637       -0.3315614805
 C          6.1657187737       -0.4502494040       -0.2440129693
 C          7.5210842925       -0.2058564579       -0.0909605531
 C          7.9851349072        1.0998372116       -0.0279712159
 C          7.1037103338        2.1664736755       -0.1183472482
 C          5.7466446352        1.9285499788       -0.2704116312
 H          5.0253369313        2.7256918958       -0.3545468504
 H          7.4673387268        3.1804055472       -0.0722004127
 H          9.0407306142        1.2874187865        0.0895172889
 H          8.2098987195       -1.0323701481       -0.0229460590
 H          5.7598771782       -1.4463467458       -0.3067045712
 H          3.6397482920        0.6286204550        1.7124831491
 H          1.9969670786        0.9362682933        3.2781554435
 H         -0.3306276073        0.5007985074        3.9687700333
 H         -1.8000314997       -0.8935589111        2.5573765592
 H         -1.6142266238       -2.9331058215        0.8647970494
 C         -0.6451940211       -2.6453427334       -1.0185534335
 C          0.1542166021       -3.9116199118       -0.9753941600
 C         -1.2038639898       -3.9036519567       -1.6088348490
 H         -1.2746475732       -3.9812818960       -2.6833986454
 H         -2.0187083657       -4.3780875472       -1.0811620278
 H          1.0214759459       -3.9916012815       -1.6134512910
 H          0.2634902588       -4.3995004334       -0.0185726693
 H         -0.3306355885       -1.8678701031       -1.7063576989
