  62
        -98.94193971
 C          1.1914190455        1.5793748630        0.5170778052
 C          2.0876527256        1.1518112027       -0.4908932778
 C          3.0731636215        0.1303052119       -0.0967221007
 C          3.0836555589       -0.3284671847        1.1662690070
 C          4.0170420147       -1.3315247385        1.7971254541
 C          4.3649999780       -2.5881521702        0.9891227540
 C          3.2393826140       -3.1230142401        0.0915045043
 H          3.1157932203       -4.1921708190        0.2769740464
 H          2.2871119433       -2.6465321107        0.3355524588
 C          3.5264932240       -2.9388023263       -1.4003588197
 H          4.5684513936       -3.2039662195       -1.5960084039
 H          2.8970479070       -3.6336891686       -1.9618218307
 C          3.2512132880       -1.5397724372       -1.9480045346
 H          2.1737442998       -1.3497299054       -1.9281990495
 H          3.5624035731       -1.5192196823       -2.9955868763
 C          3.9470593104       -0.3888076882       -1.2012473367
 H          4.9265775987       -0.6896414738       -0.8373391708
 H          4.0731998720        0.4408467929       -1.9022295612
 H          5.2442803563       -2.3956287415        0.3755204530
 H          4.6479321999       -3.3563311616        1.7111679881
 H          4.9424251906       -0.8124901914        2.0650583096
 H          3.5292131161       -1.6235161226        2.7304223235
 O          2.2118656279        0.1258480987        2.1109727917
 C          1.2281261700        1.0508343878        1.8045695796
 O          0.4594917685        1.3175595582        2.7524060033
 H         -0.4461359835       -0.0350507074       -0.2421930977
 C         -0.9941363319        0.5890369663       -0.9293092687
 C         -0.8240631607        1.9647328253       -0.8857006940
 C         -1.5188172020        2.7435256006       -1.8036741226
 C         -2.3440861120        2.1472846470       -2.7417114080
 C         -2.5057509885        0.7737225977       -2.7820108721
 C         -1.8162725258       -0.0134349628       -1.8668077760
 N         -1.9236830766       -1.4106302921       -1.8763693739
 S         -1.7578686297       -2.2957009396       -0.4708203510
 O         -0.3901174592       -2.2884507388       -0.0172281967
 O         -2.3037754099       -3.5927802247       -0.8097265321
 C         -2.8299553074       -1.4892307234        0.7047132281
 C         -2.3123343557       -0.7707283929        1.7619778315
 C         -3.1837345731       -0.1202736488        2.6221048849
 C         -4.5512314377       -0.2017291974        2.4141804879
 C         -5.0581694457       -0.9368480162        1.3525376940
 C         -4.1918263302       -1.5836319762        0.4876162288
 H         -4.5466516162       -2.1738948426       -0.3415261190
 H         -6.1227297117       -1.0039340097        1.1964935737
 H         -5.2238715827        0.3083183235        3.0855007907
 H         -2.7760446569        0.4503741882        3.4415889331
 H         -1.2445804737       -0.7168825285        1.9082433456
 H         -2.6217748918       -1.7925870443       -2.4959440885
 H         -3.1449607461        0.3134074229       -3.5193830025
 H         -2.8723329240        2.7629153416       -3.4537680194
 H         -1.4063037218        3.8154183831       -1.7897316531
 C          0.0768860222        2.5500058016        0.1781833261
 H         -0.5185078098        2.6625343915        1.0973830850
 C          0.6407348641        3.9037355348       -0.2050740131
 C         -0.0916151684        5.1617593359        0.1508078176
 C          1.1676377065        4.7973951103        0.8761817948
 H          2.0628943890        5.3689960158        0.6831071598
 H          1.0891620780        4.4406729969        1.8932305177
 H         -0.0592347336        5.9897617256       -0.5413035218
 H         -1.0251388441        5.0657967538        0.6845935799
 H          1.1873102425        3.8738873686       -1.1403832543
 O          2.0692865614        1.5992218062       -1.6671540992
