  62
        -98.94310195
 C         -1.8724930709       -1.3894933803       -0.2048818304
 C         -2.1724419505       -0.2571676899       -1.0016702099
 C         -3.5586316303        0.2271662105       -0.9230099998
 C         -4.4548835706       -0.4083425995       -0.1482924001
 C         -5.9004252405       -0.0314991192        0.0299674200
 C         -6.1304746602        1.0645906204        1.0796232704
 C         -5.6978518397        2.4703863205        0.6604850710
 H         -6.1413657396        2.7136220210       -0.3055409889
 H         -6.1131152996        3.1646138803        1.3937370413
 C         -4.1775299297        2.6751099701        0.5962615212
 H         -3.9150236194        3.6157487798        1.0858053916
 H         -3.6767318800        1.8772667497        1.1499810009
 C         -3.6038756496        2.7278953505       -0.8199822787
 H         -3.9942557093        3.6047397308       -1.3417648384
 H         -2.5180617896        2.8360608701       -0.7473740786
 C         -3.8996379499        1.4831218109       -1.6666764993
 H         -4.9457869399        1.4746008114       -1.9718940493
 H         -3.2729708898        1.5215077711       -2.5612692192
 H         -5.6104041703        0.7829134599        1.9981182003
 H         -7.2007703902        1.0878786207        1.2969721004
 H         -6.3186280003        0.2841637114       -0.9260999099
 H         -6.4197602908       -0.9350857592        0.3561969895
 O         -4.1364312909       -1.5139275299        0.5753379794
 C         -2.8445987911       -2.0107247903        0.5851335393
 O         -2.6889635814       -3.0070911907        1.3195671289
 H          0.7894959997        0.4117498691       -0.6109411094
 C          0.9267908895        0.0621693586        0.3997377704
 C          0.3543640492       -1.1322398314        0.8154464499
 C          0.5074591090       -1.5218207420        2.1431253697
 C          1.2151875191       -0.7360657826        3.0332316401
 C          1.7983542995        0.4455574274        2.6118376806
 C          1.6476566397        0.8475150980        1.2896780008
 N          2.2224128901        2.0510797780        0.8426579113
 S          3.1845785502        2.0310944283       -0.5276294986
 O          3.9430537706        3.2614531481       -0.4522739880
 O          2.3856962802        1.8458934091       -1.7096557587
 C          4.2643314798        0.6342136079       -0.2769960991
 C          5.4180316298        0.8175607172        0.4603911210
 C          6.2265345594       -0.2759128631        0.7238559106
 C          5.8622923691       -1.5303508728        0.2580821700
 C          4.7002549591       -1.6976348322       -0.4789010901
 C          3.8904787494       -0.6064293918       -0.7524006297
 H          2.9819297094       -0.6978212613       -1.3243101498
 H          4.4160710088       -2.6730854019       -0.8399985206
 H          6.4883727088       -2.3831506731        0.4680376297
 H          7.1334493494       -0.1483762437        1.2926011707
 H          5.6659026800        1.8113365770        0.7967989714
 H          2.6787518602        2.5803429376        1.5722528816
 H          2.3550603597        1.0608245169        3.3025429409
 H          1.3204023590       -1.0489349031        4.0608771800
 H          0.0431725587       -2.4396295520        2.4744445793
 C         -0.4739700810       -1.9846613608       -0.1162482706
 H         -0.6038769214       -2.9664048209        0.3589448990
 C          0.1725250190       -2.1958636404       -1.4693497706
 C          1.2630168887       -3.2153234006       -1.5995980810
 C         -0.0864553714       -3.4808517100       -2.1949133812
 H         -0.1938694513       -3.4532271595       -3.2689390512
 H         -0.7255975416       -4.2059453000       -1.7118222715
 H          2.0824031988       -3.0092511606       -2.2715053808
 H          1.5412075785       -3.7648678211       -0.7129169812
 H          0.2424276993       -1.2969337901       -2.0678417202
 O         -1.3497369902        0.3311751002       -1.7505650096
