  62
        -98.93656193
 C          1.9161152697        1.4099311228        0.2483522473
 C          1.6327742960        0.0248739930        0.2418729572
 C          2.7737731362       -0.8794617595        0.4872292932
 C          3.9843927975       -0.3556393840        0.7422726542
 C          5.2768591716       -1.0917087783        0.9629709360
 C          6.0537044877       -1.2336773229       -0.3569660973
 C          5.6896446231       -2.4618309733       -1.1905133883
 H          6.2099362847       -2.3709450135       -2.1468380648
 H          6.0702850414       -3.3574052549       -0.6948765730
 C          4.1946060790       -2.6505358065       -1.4606452019
 H          4.0917191599       -3.2999000937       -2.3323099136
 H          3.7438000174       -1.6907951126       -1.7204061383
 C          3.4423264536       -3.2809762158       -0.2791357404
 H          2.8641844083       -4.1362110849       -0.6351590778
 H          4.1662017668       -3.6730260140        0.4349979324
 C          2.4566092124       -2.3496567178        0.4414536807
 H          1.4798852979       -2.4058825377       -0.0499296227
 H          2.3126342217       -2.7068153441        1.4666121649
 H          7.1210214010       -1.2824636026       -0.1318217467
 H          5.8860390518       -0.3269202075       -0.9442224936
 H          5.8679524675       -0.4822897259        1.6498135051
 H          5.0971983129       -2.0602732347        1.4198449881
 O          4.2043174913        0.9877947285        0.7880384698
 C          3.1914686404        1.8964585965        0.5460897099
 O          3.5402765168        3.0903686574        0.6352650169
 H         -1.7098378503        1.8481044950       -0.9543011669
 C         -1.6321073393        1.8462464864        0.1196942534
 C         -0.4212142359        2.0987759886        0.7448995473
 C         -0.3650954443        2.0520853978        2.1361852217
 C         -1.4888067153        1.7516511279        2.8802380533
 C         -2.6950427316        1.4939193698        2.2522349260
 C         -2.7639651485        1.5409201931        0.8654006152
 N         -3.9883495350        1.3243177004        0.2066899585
 S         -4.1420698777        0.1871484514       -1.0113363319
 O         -3.2094777663        0.4673040630       -2.0708908478
 O         -5.5443031839        0.2301398691       -1.3683224166
 C         -3.7874100484       -1.3783774458       -0.2319751659
 C         -4.8452100924       -2.2090647723        0.0860709640
 C         -4.5900463787       -3.4038877169        0.7384886537
 C         -3.2864865189       -3.7422788555        1.0698460226
 C         -2.2385552818       -2.8942628945        0.7480702763
 C         -2.4838271809       -1.6981584316        0.0901745274
 H         -1.6763532939       -1.0300115734       -0.1631422853
 H         -1.2218771910       -3.1462026445        1.0052352583
 H         -3.0854497915       -4.6708142254        1.5809205810
 H         -5.4049987384       -4.0641976868        0.9882349075
 H         -5.8413338938       -1.9045756502       -0.1921711411
 H         -4.7757100479        1.2399091958        0.8344826099
 H         -3.5762296296        1.2606077304        2.8308201703
 H         -1.4268987215        1.7156332508        3.9574744060
 H          0.5793807495        2.2506956566        2.6254672341
 C          0.8370617179        2.4460468472       -0.0131621843
 H          1.2339553530        3.3830394469        0.4127616541
 C          0.5855973453        2.7144520678       -1.4895590492
 C          1.6812206854        2.5765897322       -2.5031360961
 C          0.5317858607        1.6162786556       -2.5064548867
 H         -0.2031852443        1.6834822866       -3.2956246213
 H          0.6999503734        0.6079151309       -2.1633752837
 H          1.7445358372        3.3106790236       -3.2922976448
 H          2.6426633659        2.2248115340       -2.1573676647
 H         -0.0984297581        3.5450872273       -1.6376913046
 O          0.4876713683       -0.4537549804        0.0383572222
