  62
        -98.94518104
 C          1.8044151900        1.4704104001        0.0898219003
 C          1.5738177300        0.0754108101        0.0049965101
 C          2.6690220200       -0.7757124199        0.4876309202
 C          3.7981284199       -0.2149566099        0.9569887505
 C          4.9973750298       -0.9527688900        1.4880766306
 C          5.9617504400       -1.4419166599        0.3985320008
 C          5.4659457602       -2.6303411098       -0.4266877694
 H          5.1434871300       -3.4270731699        0.2443147504
 H          6.3221092303       -3.0066541397       -0.9902698193
 C          4.3372056403       -2.2933808697       -1.4112419396
 H          4.5561830205       -2.7433021296       -2.3823069996
 H          4.2966118703       -1.2121019897       -1.5615584995
 C          2.9546239103       -2.7854976498       -0.9831441499
 H          2.9479939903       -3.8774546698       -0.9582863100
 H          2.2277971204       -2.4582424597       -1.7304911500
 C          2.4961427600       -2.2607581599        0.3832565800
 H          3.0404602899       -2.7640215700        1.1820211501
 H          1.4300057900       -2.4709075999        0.4925039098
 H          6.8906683899       -1.7340647399        0.8939452409
 H          6.1901721901       -0.6059620798       -0.2667733791
 H          4.6699753897       -1.7992341200        2.0924625305
 H          5.5332559196       -0.2526189100        2.1326201108
 O          3.9778281298        1.1321109601        1.0206329806
 C          2.9900352499        2.0046947601        0.5920085805
 O          3.2803373898        3.2125464901        0.7137502207
 O          0.5155063401       -0.4324662499       -0.4446290402
 C          0.7247043201        2.4363410601       -0.3660529098
 C         -0.5576581001        2.1038553100        0.3556443399
 C         -0.5534202703        2.0937302999        1.7482248599
 C         -1.6843208605        1.7390658998        2.4576951996
 C         -2.8462410003        1.3829764299        1.7945847994
 C         -2.8621167201        1.3956195400        0.4072832194
 C         -1.7276803899        1.7662787701       -0.3038531704
 H         -1.7599880297        1.7670822002       -1.3820052904
 N         -4.0382193899        1.0304793301       -0.2782633509
 S         -4.6835670200       -0.4832740600        0.0351912489
 O         -5.6452234398       -0.7051056799       -1.0216217713
 O         -5.2023174902       -0.5067903301        1.3796443588
 C         -3.3270458499       -1.6287022400       -0.1219207110
 C         -3.0021717597       -2.0915273998       -1.3810765110
 C         -1.9290307196       -2.9548176198       -1.5213480509
 C         -1.1989191398       -3.3334649999       -0.4062725408
 C         -1.5338295701       -2.8544395700        0.8498017292
 C         -2.6064565401       -1.9906727700        0.9972075891
 H         -2.8979042303       -1.5989043401        1.9581609791
 H         -0.9596284902       -3.1452866201        1.7154682493
 H         -0.3614421098       -4.0043190199       -0.5193722907
 H         -1.6607843094       -3.3255457497       -2.4978034408
 H         -3.6015478295       -1.7812736898       -2.2223548411
 H         -3.9698594297        1.1623676801       -1.2777941708
 H         -3.7328060804        1.0843908698        2.3301771192
 H         -1.6621336107        1.7340952297        3.5372499196
 H          0.3587564396        2.3569326199        2.2672530801
 H          1.0525211200        3.4374917401       -0.0525599697
 C          0.6084295403        2.4110652003       -1.8757110999
 C          0.0596801605        3.5973464103       -2.6088947699
 C          1.5219192305        3.2780566104       -2.6866288696
 H          1.9168088407        2.8874128105       -3.6125811796
 H          2.2161511604        3.9067639803       -2.1481820494
 H         -0.5470062494        3.4295912604       -3.4861861300
 H         -0.2419258797        4.4517057703       -2.0219687698
 H          0.3897614504        1.4217247903       -2.2618073800
