  62
        -98.93958847
 C         -2.2857684606       -0.7776606476        0.3373356258
 C         -3.4768440267       -0.5743330840        1.0836893132
 C         -4.6600755344       -0.1631776132        0.3216319333
 C         -4.5672814238        0.0097246803       -1.0089772647
 C         -5.6904427721        0.3949856251       -1.9330213154
 C         -5.9522881689        1.9055662419       -2.0045302294
 C         -6.6123269858        2.5107480150       -0.7649905012
 H         -6.9347500100        3.5185617226       -1.0339776114
 H         -7.5067017417        1.9390681788       -0.5152169716
 C         -5.6942062743        2.5973254565        0.4622523673
 H         -4.6538415257        2.4879525346        0.1471411984
 H         -5.7878591676        3.5855490435        0.9180208264
 C         -5.9924625149        1.5666219775        1.5511341900
 H         -5.2609652574        1.6934315833        2.3531921480
 H         -6.9848715322        1.7507584449        1.9684662352
 C         -5.9260133782        0.1090610966        1.0766883170
 H         -5.9347429002       -0.5385903916        1.9568571913
 H         -6.7937723649       -0.1262413012        0.4606996064
 H         -5.0057540976        2.4149990159       -2.1993934023
 H         -6.6069190118        2.0816333281       -2.8612228063
 H         -5.4063665009        0.0474851377       -2.9287119726
 H         -6.6035638879       -0.1200358942       -1.6327851314
 O         -3.4047473813       -0.1728710513       -1.6866783316
 C         -2.2328510454       -0.5514686347       -1.0392532153
 O         -1.2554073091       -0.6491216138       -1.8040995199
 O         -3.5473398609       -0.7344434303        2.3307624569
 C         -1.0529357256       -1.2099740216        1.1118193491
 C          0.1270327594       -0.3374335639        0.7739523842
 C          0.2503808868        0.9141444325        1.3692419335
 C          1.3213045568        1.7376813329        1.0748652005
 C          2.2906301909        1.3304734619        0.1745031735
 C          2.1686013359        0.0893367763       -0.4336990054
 C          1.1010096174       -0.7399331710       -0.1268741805
 H          1.0171730398       -1.6995044242       -0.6140010583
 N          3.1688634705       -0.3251278208       -1.3518843168
 S          4.5304553205       -0.9677662696       -0.5974102496
 O          5.2736170763       -1.6499488493       -1.6341453557
 O          4.1668481860       -1.7674914027        0.5530938472
 C          5.4187144644        0.4791953155       -0.0689690816
 C          5.4335877217        0.8182038314        1.2695161541
 C          6.1100309340        1.9625165902        1.6621879992
 C          6.7550654217        2.7425148109        0.7143974552
 C          6.7320577040        2.3866907494       -0.6261720978
 C          6.0571136582        1.2442523891       -1.0255626788
 H          6.0167744150        0.9266620258       -2.0542628159
 H          7.2360362172        2.9954771579       -1.3595125005
 H          7.2798247998        3.6330494591        1.0226945960
 H          6.1290924437        2.2411196225        2.7035088406
 H          4.9157110349        0.1824238224        1.9693972589
 H          2.8175307825       -1.0014620084       -2.0166505318
 H          3.1232612243        1.9688530369       -0.0726874744
 H          1.4018817695        2.7044890484        1.5475880360
 H         -0.5099608049        1.2353054396        2.0680644848
 H         -1.3188122582       -1.0276943275        2.1659194381
 C         -0.7267491918       -2.6930203163        1.0012943997
 C         -1.8214081878       -3.7159460514        1.0330921376
 C         -1.0223446881       -3.5123677862       -0.2174824886
 H         -0.3105011349       -4.2746748183       -0.5009996987
 H         -1.4918036778       -3.0243139076       -1.0573626165
 H         -1.6683299727       -4.6199579775        1.6027372660
 H         -2.8382374723       -3.3517394662        1.0516632063
 H          0.1848366244       -2.9416873685        1.5381278494
