  62
        -98.94701863
 C         -1.2542367103       -0.7578077118        0.6495532508
 C         -2.1064003757       -0.7255967590       -0.4799777770
 C         -2.8261021426        0.5350128228       -0.6998356979
 C         -2.5909345410        1.5900132114        0.1002680373
 C         -3.2185216957        2.9522108849       -0.0217876346
 C         -4.5986122777        3.0677250809        0.6403835050
 C         -5.7351365887        2.3561330062       -0.0947683017
 H         -6.6698298172        2.6985154365        0.3536792139
 H         -5.7412019421        2.6686520527       -1.1394394763
 C         -5.6804335213        0.8242522420       -0.0136578227
 H         -6.6728082455        0.4367314044        0.2270997997
 H         -5.0135524114        0.5264225372        0.7985560977
 C         -5.2260266106        0.1374480666       -1.3015752083
 H         -5.1892475603       -0.9398260000       -1.1213189363
 H         -5.9556852697        0.3220903036       -2.0930496988
 C         -3.8437645928        0.5805723476       -1.7994566741
 H         -3.5185509811       -0.1129725021       -2.5791122725
 H         -3.8987845241        1.5821813613       -2.2261386529
 H         -4.8423371068        4.1309760624        0.6998577564
 H         -4.5286451870        2.6847832832        1.6610553532
 H         -2.5382316121        3.6517927802        0.4692261109
 H         -3.2918456573        3.2265417012       -1.0747650688
 O         -1.7103888411        1.5407003945        1.1343886594
 C         -1.0306188708        0.3715010004        1.4360771032
 O         -0.2624387584        0.4662879571        2.4159289220
 H          1.3403472601       -0.3131448818        0.0988381529
 C          1.3694988287       -1.2164157898       -0.4900583112
 C          0.5045029626       -2.2555510574       -0.1675553082
 C          0.5476180026       -3.4182264578       -0.9229839294
 C          1.4117311389       -3.5120838140       -2.0014726032
 C          2.2352572578       -2.4578290476       -2.3489695971
 C          2.2133318493       -1.2947141476       -1.5839273695
 N          3.0536123157       -0.2206239828       -1.8943766343
 S          2.8112493984        1.3355154621       -1.3437047128
 O          1.4126475722        1.6905033377       -1.2730311915
 O          3.6247865897        2.1423055589       -2.2300467887
 C          3.5688659686        1.3197570601        0.2672388933
 C          2.8263638385        1.5496976013        1.4066355515
 C          3.4617061619        1.5138228260        2.6388306950
 C          4.8211882568        1.2554785891        2.7095975920
 C          5.5560562332        1.0333901346        1.5539861608
 C          4.9262978161        1.0645360925        0.3213833641
 H          5.4600819877        0.9050880428       -0.6006388144
 H          6.6139722494        0.8343974162        1.6121996854
 H          5.3090974364        1.2277986977        3.6711700042
 H          2.8798803836        1.6801260993        3.5314221761
 H          1.7659626515        1.7377650677        1.3299168148
 H          3.5220271195       -0.2649581938       -2.7857899008
 H          2.8874724181       -2.5264697558       -3.2060054610
 H          1.4309632070       -4.4159903447       -2.5913858971
 H         -0.1060944507       -4.2405254537       -0.6839405854
 C         -0.4568530504       -2.0121190916        0.9711699801
 H          0.1304006599       -1.7775824834        1.8706826293
 C         -1.3716365577       -3.1792784444        1.2703440803
 C         -0.8776935199       -4.3192983412        2.1078363978
 C         -1.8846970334       -3.3603295936        2.6661866764
 H         -2.9013250159       -3.6977427215        2.8016007693
 H         -1.5584698982       -2.6495351175        3.4117127608
 H         -1.2041598836       -5.3186547664        1.8633204483
 H          0.1343637189       -4.2634593689        2.4789612430
 H         -2.0527873941       -3.3969872764        0.4563878107
 O         -2.2650515436       -1.6955060559       -1.2669504601
