  62
        -98.94702417
 C          1.5158485411        1.0752539430        0.0772878593
 C          2.5214494962        0.6076053574        0.9533320690
 C          3.0830737595       -0.7121584197        0.6408883569
 C          2.5885418867       -1.4069517832       -0.4005135363
 C          3.0955907667       -2.7444768559       -0.8548547659
 C          4.1999009377       -2.5935123187       -1.9105774923
 C          5.3005025978       -1.6091561594       -1.5146432958
 H          6.0392234676       -1.6065818062       -2.3188374521
 H          4.8764721037       -0.6038610974       -1.4626131910
 C          5.9938295937       -1.9348602992       -0.1844636473
 H          5.8021224065       -2.9731115867        0.0886918401
 H          7.0725133655       -1.8274163844       -0.3157294879
 C          5.5944807458       -1.0242616041        0.9780457121
 H          5.6961590441        0.0211114850        0.6760982009
 H          6.2928530574       -1.1971364504        1.8011918066
 C          4.1783086545       -1.2289961306        1.5313786632
 H          4.0202762142       -2.2849407904        1.7622162127
 H          4.0996102913       -0.6602861601        2.4630052755
 H          4.6364845133       -3.5767212147       -2.0949813384
 H          3.7439950076       -2.2436843645       -2.8395486410
 H          3.4715149790       -3.2950265124        0.0055827774
 H          2.2584427202       -3.2965564608       -1.2860091259
 O          1.5934756863       -0.9433234121       -1.1958386720
 C          1.0211001114        0.2962962599       -0.9698446956
 O          0.1056732705        0.5934041684       -1.7609626678
 H         -0.3054567049        0.5945043888        1.8411777649
 C         -1.0382320333        1.2033581447        1.3250540960
 C         -0.6090509668        2.2433098206        0.5088401130
 C         -1.5682305296        3.0120233841       -0.1372916000
 C         -2.9147570964        2.7169027723       -0.0047847675
 C         -3.3307093055        1.6386246128        0.7549632912
 C         -2.3793385833        0.8828296606        1.4258549204
 N         -2.8016022006       -0.2852623883        2.1299528416
 S         -2.5454127658       -1.6511089555        1.1630782268
 O         -3.0609540412       -2.7709301248        1.9236206579
 O         -1.1566084064       -1.7666287238        0.7680851727
 C         -3.5903302939       -1.3183903543       -0.2334788522
 C         -3.0656717619       -0.6892895616       -1.3451048966
 C         -3.9162599839       -0.3883252664       -2.3983015620
 C         -5.2611504513       -0.7157040780       -2.3210877228
 C         -5.7697654386       -1.3479299356       -1.1959965152
 C         -4.9282034085       -1.6503414001       -0.1382140203
 H         -5.2727745317       -2.1415376138        0.7568939305
 H         -6.8160100194       -1.6016680958       -1.1392810496
 H         -5.9161007918       -0.4756706666       -3.1438238458
 H         -3.5164557282        0.1064690872       -3.2688222677
 H         -2.0154455416       -0.4389401402       -1.3769044790
 H         -2.2896093719       -0.4227080755        2.9925022694
 H         -4.3716667838        1.3707201729        0.8330907199
 H         -3.6462428280        3.3182918365       -0.5216605652
 H         -1.2585909854        3.8328946190       -0.7632761799
 C          0.8770737961        2.4294306261        0.3360021370
 H          1.3041666819        2.7812442480        1.2870420529
 C          1.2435257385        3.4080937201       -0.7596718995
 C          1.3179463469        4.8767369277       -0.4693294803
 C          2.5743641416        4.0940306730       -0.7011290974
 H          3.1172802083        4.2455479276       -1.6219474320
 H          3.2070758827        3.8739809354        0.1464855560
 H          1.0009468149        5.5700973998       -1.2334429862
 H          1.1016052445        5.1986867179        0.5379742110
 H          0.8856095211        3.0925246591       -1.7333743077
 O          2.9238408848        1.2614385893        1.9560093232
