  62
        -98.93774869
 C         -2.6229582148       -0.1388232140       -0.5000062587
 C         -2.2391037995       -0.7160401335        0.7337152541
 C         -1.7374588832       -2.1001382742        0.6814127575
 C         -1.6269226670       -2.7176343509       -0.5070674693
 C         -1.1768321798       -4.1264039837       -0.8063505364
 C          0.0076660531       -4.6858453205       -0.0102627811
 C          1.1039312490       -3.6660560501        0.3319340827
 H          0.9533820485       -2.7364358763       -0.2208499944
 H          2.0717732349       -4.0700804803        0.0274350046
 C          1.1785970159       -3.3508163168        1.8273883387
 H          2.1597167219       -2.9210733181        2.0451779939
 H          1.0905066854       -4.2832688887        2.3909844399
 C          0.1373223611       -2.3545671775        2.3348035173
 H          0.3593423141       -1.3608950105        1.9342174638
 H          0.2382661440       -2.2867784159        3.4213675597
 C         -1.3243114583       -2.6931363145        1.9976993443
 H         -1.9588070633       -2.2181913251        2.7513653177
 H         -1.4958563981       -3.7670363082        2.0263672548
 H          0.4351077469       -5.4904742782       -0.6113763019
 H         -0.3538910991       -5.1401612095        0.9112373874
 H         -0.9302345090       -4.1223137430       -1.8710508843
 H         -2.0381303155       -4.7894701326       -0.6782577933
 O         -1.9805673351       -2.1106079402       -1.6766097357
 C         -2.4578897628       -0.8141221001       -1.7066416706
 O         -2.7000660471       -0.3794141566       -2.8535112436
 O         -2.3282241381       -0.1125698464        1.8348902945
 C         -3.0814346316        1.3102301745       -0.5539175365
 C         -1.9353962177        2.1653154969       -0.0689022213
 C         -2.0327126305        3.1249650586        0.9292513543
 C         -0.9012417851        3.7820086410        1.3848832317
 C          0.3485973604        3.4893508295        0.8678776407
 C          0.4471994744        2.5574297352       -0.1533740291
 C         -0.6860818662        1.9222632261       -0.6261651262
 H         -0.5902163339        1.1782832493       -1.4086727411
 N          1.7374467695        2.1774581638       -0.6456355128
 S          2.1160084758        0.6354283061       -0.0453061685
 O          1.4950578981       -0.3898230832       -0.8591782996
 O          1.8151937862        0.6268598824        1.3628374621
 C          3.8834554215        0.6022473621       -0.2776406915
 C          4.6505437365        1.4466288054        0.5018830394
 C          6.0236855880        1.4635869711        0.3199597789
 C          6.6039373645        0.6399627569       -0.6338221123
 C          5.8210982672       -0.2027741092       -1.4075526268
 C          4.4458159627       -0.2224423418       -1.2314141896
 H          3.7973785228       -0.8628016832       -1.8079714571
 H          6.2740888329       -0.8435343296       -2.1469421808
 H          7.6732554183        0.6541071955       -0.7740200673
 H          6.6359986153        2.1169723008        0.9202321273
 H          4.1537299358        2.0614346990        1.2337585863
 H          1.7347417396        2.1033070845       -1.6557908472
 H          1.2406169224        3.9600682312        1.2469973589
 H         -0.9932405564        4.5134968441        2.1732620049
 H         -2.9925183330        3.3400895771        1.3702541955
 H         -3.2571860945        1.5345076299       -1.6163932207
 C         -4.3687770339        1.5139609046        0.2133673045
 C         -5.2869800520        2.6409391239       -0.1508589002
 C         -5.6717159906        1.2281234158       -0.4686326661
 H         -6.4613317328        0.7650934969        0.1034917009
 H         -5.6312426325        0.9038432961       -1.4985179969
 H         -5.8177618637        3.1492791573        0.6396557269
 H         -4.9922251559        3.2809495192       -0.9686699510
 H         -4.2783431844        1.2394011030        1.2575986214
