  62
        -98.93737193
 C         -1.7671941685       -1.0392562017       -0.1708090462
 C         -2.9194985981       -1.1037106074        0.6574251261
 C         -4.1434929092       -0.4852198556        0.1346039068
 C         -4.1285382397        0.0844417020       -1.0833430814
 C         -5.2935011187        0.7118112980       -1.8018921677
 C         -5.8870266086        1.9803508218       -1.1595121981
 C         -7.0763877612        1.7194269028       -0.2269533343
 H         -7.8228659453        2.5007453075       -0.3838666263
 H         -7.5456374192        0.7768635476       -0.5116221065
 C         -6.7588305206        1.7004337130        1.2713973978
 H         -6.6483041839        2.7279989600        1.6255174645
 H         -7.6165639083        1.2654451220        1.7889961508
 C         -5.4970617419        0.9387261789        1.6779529261
 H         -4.6133545218        1.5302586348        1.4260352617
 H         -5.4972908617        0.8351206988        2.7648445237
 C         -5.3474417867       -0.4514829059        1.0300403141
 H         -6.2461365790       -0.7162040024        0.4748725057
 H         -5.1836300536       -1.2061833341        1.8017825415
 H         -5.1019782630        2.5240575827       -0.6342960256
 H         -6.2291344303        2.6174336825       -1.9767582403
 H         -6.0797910999       -0.0380295039       -1.9152160502
 H         -4.9216939286        0.9580697959       -2.7986663796
 O         -3.0080776195        0.1180145664       -1.8517614005
 C         -1.8045234645       -0.4190317884       -1.4193450900
 O         -0.8788624013       -0.2721887519       -2.2443766606
 O         -2.9256533226       -1.6694812995        1.7827880615
 C         -0.5048839905       -1.6836900000        0.3771864930
 C          0.4440048858       -0.6632416954        0.9586104805
 C          0.8146086249       -0.7098395256        2.2971369106
 C          1.7158284098        0.2059212162        2.8131336712
 C          2.2654529036        1.1851483121        2.0055203511
 C          1.8941590044        1.2435116048        0.6685554350
 C          0.9971190572        0.3212277951        0.1519506043
 H          0.7141561039        0.3732471112       -0.8888828661
 N          2.4640543651        2.2266712837       -0.1691532598
 S          4.1349686613        2.1474328278       -0.3000637044
 O          4.7295431804        2.7506670011        0.8663705000
 O          4.4611642556        2.7622278730       -1.5671352079
 C          4.4883216225        0.3994587107       -0.3289610690
 C          4.1268361160       -0.3168347885       -1.4525949273
 C          4.3186537188       -1.6884234182       -1.4630442796
 C          4.8588289918       -2.3176369085       -0.3519081999
 C          5.2161688863       -1.5841990485        0.7684687327
 C          5.0274954508       -0.2116323274        0.7844967671
 H          5.2897942770        0.3965036500        1.6344384060
 H          5.6355046144       -2.0772821402        1.6304302958
 H          5.0024504372       -3.3866995587       -0.3601857797
 H          4.0402679661       -2.2592552587       -2.3346451596
 H          3.7106076723        0.2048124214       -2.3000166772
 H          2.0495028614        2.2354308732       -1.0908520672
 H          2.9757950565        1.9022566908        2.3843409829
 H          1.9938815652        0.1564114608        3.8547053871
 H          0.3833289916       -1.4654378538        2.9371476284
 H         -0.8492360592       -2.3255682530        1.1988734037
 C          0.2204583447       -2.5483589417       -0.6367621931
 C          1.1561209868       -3.6106058808       -0.1468533991
 C         -0.1517449638       -3.9930049532       -0.7709972765
 H         -0.1479762251       -4.4353923611       -1.7558654156
 H         -0.9348842813       -4.3688324742       -0.1286869970
 H          2.0634722046       -3.7899961901       -0.7015946361
 H          1.2617658095       -3.7292224637        0.9205426518
 H          0.4877676485       -2.0175551222       -1.5409282898
