  62
        -98.93624820
 C          1.6719459184        1.5036342511        0.5562987719
 C          1.6744610443        0.2741076600        1.2602940173
 C          2.8638874633       -0.5784542762        1.1091626667
 C          3.8815945998       -0.1433371103        0.3465155396
 C          5.1556059516       -0.8750557334        0.0279748793
 C          5.0280692423       -1.6294169859       -1.3061603334
 C          4.4244661186       -3.0291753650       -1.1973263302
 H          4.2626596576       -3.3923841883       -2.2147005274
 H          5.1480962007       -3.6956212092       -0.7232794428
 C          3.1024574308       -3.1149325136       -0.4290798149
 H          2.4626776593       -2.2764476350       -0.7110029010
 H          2.5962190376       -4.0307055288       -0.7403153727
 C          3.2898139271       -3.1493317565        1.0957647840
 H          4.3376418727       -3.3527097449        1.3169534930
 H          2.7198400571       -3.9834623928        1.5105251866
 C          2.8444763092       -1.8857421437        1.8526548977
 H          1.8078871407       -2.0008740641        2.1854339919
 H          3.4500132263       -1.7816442720        2.7590624346
 H          4.4225630409       -1.0174222424       -1.9795702375
 H          6.0201458572       -1.7222229952       -1.7526078914
 H          5.9355594894       -0.1175471731       -0.0733690706
 H          5.4232303760       -1.5490815587        0.8366630807
 O          3.8494104170        1.0510685250       -0.3004555404
 C          2.7479857973        1.8948657263       -0.2414076593
 O          2.8722800514        2.9261930678       -0.9250746836
 H         -2.1159262886        1.4778704474        1.0570017557
 C         -1.8405905458        1.5172548552        0.0140008984
 C         -0.5779948758        1.9523974588       -0.3582832077
 C         -0.2465109251        1.9758041917       -1.7105768457
 C         -1.1683162899        1.5828211410       -2.6627223396
 C         -2.4243210447        1.1373226032       -2.2865542205
 C         -2.7601654806        1.0979796593       -0.9390998474
 N         -4.0256650983        0.6469512540       -0.5247711412
 S         -4.1204091907       -0.5244195183        0.6720163184
 O         -5.4856984932       -0.9980707307        0.6013414786
 O         -3.7063041176        0.0297904431        1.9341020494
 C         -3.0111980706       -1.8087952641        0.1246012769
 C         -1.6832269982       -1.7953115851        0.4995032745
 C         -0.8400570875       -2.7721486260       -0.0084373887
 C         -1.3300513943       -3.7354727895       -0.8752525353
 C         -2.6685318256       -3.7364361296       -1.2390473357
 C         -3.5164234333       -2.7625435212       -0.7392788662
 H         -4.5652171818       -2.7313271440       -0.9872189674
 H         -3.0504071307       -4.4894130873       -1.9095492115
 H         -0.6653301561       -4.4897556989       -1.2659907419
 H          0.1988498957       -2.7637888528        0.2805059049
 H         -1.3103909364       -1.0419623624        1.1760838843
 H         -4.6443611515        0.4097591630       -1.2876521342
 H         -3.1396374752        0.8219214680       -3.0308690343
 H         -0.9035749158        1.6133020348       -3.7088421318
 H          0.7394436435        2.3073789707       -2.0010897942
 C          0.4223735688        2.3555409644        0.6947296436
 H         -0.0031916672        2.0753169048        1.6720167711
 C          0.6965935803        3.8514649886        0.7362416008
 C          0.2352244720        4.8128569291       -0.3138696784
 C         -0.4292970129        4.7996247977        1.0277744355
 H         -0.2545508218        5.6212925858        1.7057176930
 H         -1.4231841738        4.3805364441        1.0889430040
 H          0.8931887383        5.6318346831       -0.5612430853
 H         -0.3162348861        4.4288100714       -1.1571682217
 H          1.6510948452        4.0761811782        1.2007337183
 O          0.7137986896       -0.0972727357        1.9884364929
