  62
        -98.93968346
 C         -2.5631003095       -0.2433978025        0.0475977134
 C         -2.3342768809       -1.2709830644       -0.8934098732
 C         -1.6990758585       -2.4995997992       -0.3878394899
 C         -1.3787309679       -2.5757531776        0.9159902016
 C         -0.6469288640       -3.6856828771        1.6191747055
 C          0.8658060907       -3.4023043752        1.6334058821
 C          1.6313338058       -3.9537843002        0.4324580971
 H          2.6638669483       -3.6081150370        0.5214103502
 H          1.6398108484       -5.0455566750        0.4766129151
 C          1.0885341402       -3.5183431679       -0.9308746481
 H          0.8445201084       -2.4533535632       -0.9012788320
 H          1.8878659664       -3.6374231270       -1.6658685297
 C         -0.1295099939       -4.3370579642       -1.3845541073
 H          0.0407809574       -4.7030003906       -2.3994877417
 H         -0.2229335778       -5.2175471129       -0.7487686142
 C         -1.4619568744       -3.5764693593       -1.4121254670
 H         -2.2841631025       -4.2983702311       -1.3517900215
 H         -1.5656366520       -3.0661388679       -2.3753446688
 H          1.0069063835       -2.3190898461        1.6794564711
 H          1.2966484104       -3.8331446564        2.5397829694
 H         -0.8654494498       -4.6464084599        1.1618649503
 H         -1.0112090246       -3.6935566757        2.6485502083
 O         -1.6484624362       -1.5743935620        1.7976091456
 C         -2.2025373270       -0.3766920202        1.3883850014
 O         -2.3406360921        0.4667526065        2.2957695634
 O         -2.6358603549       -1.1596904906       -2.1157815721
 C         -3.0879923035        1.0962720342       -0.4332204399
 C         -2.0414245059        2.1607505371       -0.1986377419
 C         -2.3427142400        3.4715127120        0.1459740120
 C         -1.3272218328        4.3934765549        0.3427939275
 C          0.0008676145        4.0290595164        0.2257587103
 C          0.3128872421        2.7160465870       -0.1150243968
 C         -0.7058278783        1.8124354259       -0.3568113202
 H         -0.4520188426        0.8058237673       -0.6553996714
 N          1.6514899210        2.2873102460       -0.1672952193
 S          2.0375197270        0.6731682996       -0.3996749964
 O          1.7624410622        0.2564433392       -1.7593390267
 O          1.4300253195       -0.0986203352        0.6534411267
 C          3.8003339107        0.7548901866       -0.1495719749
 C          4.2790959891        0.8016104916        1.1458966130
 C          5.6461905438        0.8928540347        1.3529896446
 C          6.5076953993        0.9366685086        0.2666248790
 C          6.0132543638        0.8860954415       -1.0278187592
 C          4.6465310742        0.7951091963       -1.2410965447
 H          4.2164587711        0.7427300109       -2.2283654248
 H          6.6853184170        0.9164985659       -1.8702282554
 H          7.5713438333        1.0074188396        0.4305595754
 H          6.0337431454        0.9287726245        2.3583561242
 H          3.5704606342        0.7557323408        1.9568674494
 H          2.2981076958        2.9333539622       -0.5934162906
 H          0.7899176083        4.7424923055        0.4033673544
 H         -1.5763666406        5.4104366446        0.6054781271
 H         -3.3715611173        3.7709207797        0.2635211875
 H         -3.2260074863        0.9847150653       -1.5201925997
 C         -4.4251728868        1.4229074964        0.1980288432
 C         -5.4496580751        2.2125179263       -0.5593358482
 C         -5.6553334729        0.7469510500       -0.3267139510
 H         -6.4115392644        0.4339153684        0.3771706521
 H         -5.5290701476        0.0721463831       -1.1609881205
 H         -6.0705081112        2.9073325179       -0.0141598986
 H         -5.1961417939        2.5334055905       -1.5585194818
 H         -4.3511516377        1.5682390396        1.2697502473
