  62
        -98.94760464
 C          1.7250134480        1.3831029634       -0.2012753327
 C          2.8372886516        0.7840011372        0.4320859443
 C          3.3453191376       -0.4460905510       -0.1871200983
 C          2.7377129796       -0.9286825645       -1.2868538407
 C          3.1312307226       -2.1902546553       -1.9987710102
 C          2.3422741659       -3.3967292019       -1.4729443473
 C          2.3425044946       -3.5204530176        0.0506140757
 H          1.7677941215       -2.6893850653        0.4676690937
 H          1.7935136052       -4.4316593076        0.3008519198
 C          3.7375898437       -3.5694911606        0.6893633801
 H          3.7442017647       -4.3552013612        1.4479685504
 H          4.4789911403       -3.8394330101       -0.0637879525
 C          4.1688666860       -2.2768218625        1.3846378461
 H          3.3761380899       -1.9474036746        2.0619628017
 H          5.0502152767       -2.4958753446        1.9937102076
 C          4.5297723025       -1.1079569035        0.4592179773
 H          5.2450236229       -1.4431218458       -0.2945692627
 H          5.0084548440       -0.3362354828        1.0695275314
 H          1.3028449948       -3.3005728720       -1.7958565917
 H          2.7591914983       -4.3033583545       -1.9164436359
 H          2.9173427755       -2.0647307364       -3.0617482713
 H          4.1991663388       -2.3567289012       -1.8693941356
 O          1.6670243411       -0.3301604316       -1.8637689616
 C          1.1068591228        0.8098151998       -1.3134735672
 O          0.0917298377        1.2226790299       -1.9063947729
 O          3.3777595167        1.2552735522        1.4716951652
 C          1.1122503780        2.6356878110        0.4037913583
 C         -0.3232768764        2.3420050322        0.7595272888
 C         -1.3959332826        3.1507685719        0.4081259636
 C         -2.6954196157        2.7527348151        0.6751092805
 C         -2.9530763086        1.5317051056        1.2718130467
 C         -1.8846503823        0.7310710161        1.6509416651
 C         -0.5869974151        1.1514465085        1.4262012525
 H          0.2374024540        0.5103438207        1.7146573605
 N         -2.1489259469       -0.5751811905        2.1637130192
 S         -1.9529005411       -1.7075379093        0.9187391816
 O         -2.2665456725       -2.9939431901        1.5059862403
 O         -0.6411419534       -1.6100191749        0.3160467894
 C         -3.2262671797       -1.2175742767       -0.2174559155
 C         -4.5090849358       -1.6798376546        0.0054033068
 C         -5.5279931399       -1.2571797410       -0.8322588216
 C         -5.2474155162       -0.3780101082       -1.8679326032
 C         -3.9544123060        0.0767006128       -2.0757846418
 C         -2.9274888799       -0.3434468776       -1.2437322677
 H         -1.9126508077        0.0001985222       -1.3806961691
 H         -3.7313936928        0.7629330521       -2.8769316154
 H         -6.0407891885       -0.0438411522       -2.5178399792
 H         -6.5345014124       -1.6094240443       -0.6738060944
 H         -4.6741618896       -2.3616902002        0.8233636512
 H         -1.5190628514       -0.8320586604        2.9134740632
 H         -3.9601511335        1.1874676600        1.4416682945
 H         -3.5178991100        3.3887617261        0.3870969094
 H         -1.2143579589        4.0857368183       -0.0963017530
 H          1.6771590736        2.8241536576        1.3289091533
 C          1.2792471824        3.8188238917       -0.5252972586
 C          1.3494373377        5.2100775209        0.0282032049
 C          2.5807388243        4.5611513022       -0.5265276156
 H          2.9722241833        4.9126910334       -1.4691821143
 H          3.3417879661        4.2269468675        0.1635352131
 H          0.8977773091        6.0124597017       -0.5350832825
 H          1.2779117767        5.3262662245        1.0989810364
 H          0.7883206503        3.6683044672       -1.4801945654
