  62
        -98.93576522
 C         -1.7708755500       -0.6981435892        0.2584144003
 C         -2.4976268000        0.1965657615        1.0984272096
 C         -3.9579215600        0.1929516815        0.9784920195
 C         -4.5503936499       -0.6526627691        0.1178975001
 C         -6.0300702699       -0.8143189892       -0.0987980999
 C         -6.6341728998        0.2065813301       -1.0724265807
 C         -6.7509546198        1.6314801205       -0.5298960818
 H         -7.3849314497        2.1875884100       -1.2233556222
 H         -7.2617999998        1.6119452613        0.4333390582
 C         -5.4108594797        2.3672074105       -0.3892182722
 H         -5.5036922097        3.3753573802       -0.7995313530
 H         -4.6480002797        1.8524072901       -0.9779928518
 C         -4.9119988198        2.5090362716        1.0490271077
 H         -5.6024213698        3.1374313121        1.6162527672
 H         -3.9411091798        3.0110691015        1.0269826774
 C         -4.7400366200        1.1783153221        1.7930347287
 H         -4.1815162900        1.3689670228        2.7127424486
 H         -5.7144213800        0.7654745524        2.0544802490
 H         -7.6359524198       -0.1438124901       -1.3314302805
 H         -6.0372825198        0.2130952994       -1.9873272806
 H         -6.5481351800       -0.7560140485        0.8589852501
 H         -6.1762040800       -1.8139598095       -0.5137515491
 O         -3.8343570699       -1.4977542698       -0.6619749792
 C         -2.4439190099       -1.5314465798       -0.6394003991
 O         -1.9820421499       -2.3417434305       -1.4646879384
 O         -1.9443937300        0.9683832321        1.9284291091
 C         -0.2644562300       -0.6511950091        0.4475116704
 C          0.5399620201       -0.0746690900       -0.6961335800
 C          0.3480506202       -0.4314240810       -2.0255676997
 C          1.1515254403        0.1021581382       -3.0178578001
 C          2.1808462603        0.9719681084       -2.7068764206
 C          2.3914905703        1.3248264494       -1.3795421209
 C          1.5656009002        0.8117401302       -0.3896718806
 H          1.7253291301        1.1222240409        0.6323769892
 N          3.4429287703        2.1814534896       -1.0182754915
 S          4.3097448502        1.8391563006        0.3689586589
 O          3.6163752001        2.3402037615        1.5288752984
 O          5.6204826802        2.4041882003        0.1291244985
 C          4.4122930201        0.0576247306        0.4421947602
 C          4.0321636900       -0.5968339785        1.5954960207
 C          4.1114537399       -1.9801403985        1.6408623817
 C          4.5596807199       -2.6819986293        0.5332224923
 C          4.9421929200       -2.0099067402       -0.6174708882
 C          4.8735256701       -0.6274176902       -0.6648681093
 H          5.1739943302       -0.0797087409       -1.5429505496
 H          5.2914484101       -2.5590300309       -1.4768251278
 H          4.6121541599       -3.7587826293        0.5680770431
 H          3.8180399698       -2.5036575178        2.5371601721
 H          3.6748640299       -0.0141258378        2.4300285202
 H          4.0441709004        2.4607269590       -1.7795782516
 H          2.8132176504        1.3779555378       -3.4816956509
 H          0.9813670704       -0.1769164226       -4.0466554199
 H         -0.4313619498       -1.1306205212       -2.2789881092
 H         -0.1537681200        0.0568765615        1.2845550399
 C          0.4333449199       -1.9283265388        0.9142054214
 C         -0.2976026802       -3.0996507883        1.4926610623
 C          0.4095928599       -3.2306594494        0.1771076724
 H          1.3240797999       -3.8037984194        0.1391783829
 H         -0.1992815400       -3.2989396600       -0.7085130376
 H          0.1137797597       -3.5869814377        2.3640959026
 H         -1.3779719902       -3.0711882283        1.4767795222
 H          1.3811099899       -1.6829751385        1.3856689113
