  62
        -98.94326945
 C         -1.2735230200       -1.2103595307        0.2634810201
 C         -2.1508243402       -0.7348660308        1.2700467600
 C         -2.8160131605        0.5467380690        0.9998621797
 C         -2.5168231205        1.2148001690       -0.1288974403
 C         -3.1580127307        2.5024718588       -0.5566045205
 C         -4.3939742706        2.2430551984       -1.4295030107
 C         -5.3677155604        1.2252828082       -0.8355225207
 H         -6.2146083103        1.1465233879       -1.5205942109
 H         -4.8867239702        0.2448477683       -0.8069838706
 C         -5.8781629007        1.5787296382        0.5684560192
 H         -5.7108095610        2.6377114083        0.7684546291
 H         -6.9565844907        1.4098004280        0.6021639490
 C         -5.2625615607        0.7472506685        1.6956028593
 H         -5.3496274104       -0.3157847716        1.4560606894
 H         -5.8428748408        0.9244022484        2.6051613292
 C         -3.7947785808        1.0496888489        2.0232746095
 H         -3.6683890011        2.1221656289        2.1853907194
 H         -3.5488190808        0.5307271490        2.9546203796
 H         -4.9101139308        3.1915853582       -1.5885165309
 H         -4.0609279003        1.8700134684       -2.4006058606
 H         -3.4385908110        3.0742046388        0.3258651494
 H         -2.4315310508        3.0751191989       -1.1345357805
 O         -1.6201058103        0.7621920891       -1.0382460601
 C         -0.9734813000       -0.4563803807       -0.8739459099
 O         -0.1787990298       -0.7305739406       -1.7886824397
 H          1.0293111497       -0.8563292000        1.7826984905
 C          1.5801967500       -1.4060295699        1.0285222306
 C          0.9116247903       -2.3541160302        0.2626925106
 C          1.6262225106       -3.0457158101       -0.7050155392
 C          2.9706887406       -2.7819008798       -0.9048448691
 C          3.6299075002       -1.8316636995       -0.1471856391
 C          2.9238639299       -1.1380191596        0.8273692608
 N          3.5825080796       -0.1564561694        1.6007088508
 S          4.1978046394        1.1560759707        0.7595664207
 O          5.3215083496        0.7201506509       -0.0292320491
 O          4.4747626790        2.1559661709        1.7667766707
 C          2.8746019194        1.7030850403       -0.3018355995
 C          2.7861493497        1.2121618801       -1.5882841595
 C          1.7293084497        1.6167377198       -2.3869597797
 C          0.7844186395        2.4984568596       -1.8875759399
 C          0.8825137391        2.9763535997       -0.5900838600
 C          1.9348000491        2.5725113301        0.2147290702
 H          2.0514884789        2.9289385102        1.2261624202
 H          0.1407078189        3.6559989796       -0.2006093201
 H         -0.0393947605        2.8040954393       -2.5130695001
 H          1.6376486100        1.2326493496       -3.3894708197
 H          3.5409302099        0.5294095303       -1.9424421393
 H          3.0185575094        0.1809689106        2.3684953207
 H          4.6711979102       -1.6010656393       -0.3044981889
 H          3.5119260308       -3.3201982997       -1.6680921089
 H          1.1246261509       -3.7708899903       -1.3241741592
 C         -0.5645289797       -2.5309369405        0.5106160804
 H         -0.7075828098       -2.7195833704        1.5881030604
 C         -1.1678419793       -3.7217267107       -0.2173476996
 C         -2.6307792092       -3.7603046311       -0.5412182998
 C         -1.6222044391       -3.6522192010       -1.6432407797
 H         -1.4607776288       -4.5151080710       -2.2728607996
 H         -1.5160930292       -2.7106475710       -2.1578116197
 H         -3.2183416695       -2.8867773612       -0.2980797300
 H         -3.1619009090       -4.6917601112       -0.4143549698
 H         -0.7243480191       -4.6584988406        0.1065225106
 O         -2.3606157303       -1.3504105307        2.3505908800
