  62
        -98.93004064
 C          2.1798664987       -0.7110839810        0.0307902555
 C          3.4954868037       -1.2308501693        0.1313096592
 C          4.5830066910       -0.3441353111       -0.3024947047
 C          4.2879625759        0.8638849225       -0.8140454178
 C          5.2634483597        1.8775376030       -1.3517125272
 C          6.2425070831        2.4890069061       -0.3308124322
 C          7.5974902990        1.7750857845       -0.2475463988
 H          7.7792453217        1.2565946365       -1.1896546257
 H          8.3836648632        2.5259807822       -0.1461950068
 C          7.7649207593        0.7938959023        0.9166156986
 H          8.6502129946        0.1863807596        0.7170563109
 H          7.9525807031        1.3571285388        1.8335937539
 C          6.5790502155       -0.1331463741        1.1842672781
 H          6.8984419474       -0.9004149238        1.8923421018
 H          5.7798239823        0.4264857082        1.6767046196
 C          5.9923178607       -0.8064302186       -0.0717260151
 H          6.6113959549       -0.6014055350       -0.9436776036
 H          5.9452177007       -1.8876522886        0.0723573294
 H          6.4193724180        3.5197239072       -0.6422813233
 H          5.7688495484        2.5260209953        0.6499759103
 H          5.8291324226        1.4206316731       -2.1669133003
 H          4.6486296686        2.6732493613       -1.7773659089
 O          3.0067521597        1.3025382160       -0.9505581027
 C          1.9233885622        0.5422811185       -0.5261221272
 O          0.8220305998        1.0922009989       -0.7163614325
 O          3.7488180235       -2.3897992515        0.5547000925
 C          1.0408772094       -1.5923749653        0.5098431840
 C         -0.0942184450       -1.5800431239       -0.4825072309
 C          0.1408265544       -2.0558255999       -1.7699807679
 C         -0.8619728833       -2.0457130141       -2.7190590144
 C         -2.1204800293       -1.5655917561       -2.4029414260
 C         -2.3702348153       -1.1003401299       -1.1171824192
 C         -1.3605716849       -1.1153465877       -0.1649703667
 H         -1.5697042801       -0.7242172978        0.8153758779
 N         -3.6622677430       -0.6641981861       -0.7701970201
 S         -3.9191891295        0.5729626654        0.3457614327
 O         -3.3426512839        1.8162019309       -0.1155314599
 O         -3.5223742632        0.1222623706        1.6554891790
 C         -5.6999954316        0.6613816906        0.2655510613
 C         -6.4350862967       -0.3210898138        0.9018409500
 C         -7.8180045903       -0.2777718268        0.8276824240
 C         -8.4404721199        0.7421515999        0.1230421936
 C         -7.6902047535        1.7225318802       -0.5082160325
 C         -6.3061165797        1.6836246497       -0.4392168778
 H         -5.6819620538        2.4277791433       -0.9076505520
 H         -8.1766192139        2.5158375298       -1.0526988461
 H         -9.5171151650        0.7744663519        0.0675503814
 H         -8.4047755313       -1.0370520014        1.3190249388
 H         -5.9081474059       -1.0881005537        1.4447687437
 H         -4.2426897780       -0.5118359201       -1.5845937604
 H         -2.9026789204       -1.5493892492       -3.1468980691
 H         -0.6626200385       -2.4079555881       -3.7165920787
 H          1.1288303349       -2.4192656680       -2.0196628829
 H          1.4690413609       -2.6092852533        0.5223859995
 C          0.5901807702       -1.2944784457        1.9321106936
 C          1.5307529633       -0.7182065142        2.9463265975
 C          0.3904746867        0.1045297581        2.4298106419
 H         -0.4497762607        0.3006041339        3.0807202288
 H          0.6001721869        0.9127710044        1.7457598191
 H          1.4822329421       -1.0885815606        3.9591801162
 H          2.5293664656       -0.4678338952        2.6188074806
 H         -0.1102437043       -2.0393131157        2.2986731261
