  62
        -98.93772771
 C          2.5581495495       -0.1484087092        0.5070838354
 C          2.0715232085       -0.7688447818       -0.6664955719
 C          1.3305221039       -2.0303145042       -0.4891765412
 C          1.1653484730       -2.5182965384        0.7527682852
 C          0.3715324749       -3.7248550171        1.1809543982
 C         -1.0655863899       -3.7676916329        0.6339321065
 C         -1.2944602740       -4.9071919365       -0.3593582449
 H         -0.7782814130       -5.7970344472        0.0072275774
 H         -2.3619713548       -5.1359289506       -0.3894991615
 C         -0.8433258265       -4.6099355869       -1.7877413786
 H         -1.5183380458       -3.8734668949       -2.2289156366
 H         -0.9412535536       -5.5330122646       -2.3642301838
 C          0.5890523996       -4.0897932013       -1.9345925505
 H          1.2614123024       -4.6092403987       -1.2537889375
 H          0.9209068790       -4.3225157676       -2.9489616705
 C          0.7194717676       -2.5719631991       -1.7524774696
 H          1.3420081515       -2.1602260613       -2.5539202740
 H         -0.2574585596       -2.0884170241       -1.8627654889
 H         -1.3095603203       -2.8063823745        0.1782914311
 H         -1.7453175856       -3.9031692356        1.4771990417
 H          0.9086032750       -4.6328022541        0.8997618562
 H          0.3561160366       -3.6883712138        2.2723878218
 O          1.7326441362       -1.9329435639        1.8488225986
 C          2.3901512305       -0.7200528477        1.7648624791
 O          2.7803820930       -0.2633327711        2.8607152388
 H          0.5157960612        1.2169902498        0.9091696808
 C          0.7604693206        1.9571587408        0.1606770896
 C          2.0863929486        2.1479403751       -0.2080742609
 C          2.3758657243        3.1234471974       -1.1526809062
 C          1.3541672416        3.8516470899       -1.7389442894
 C          0.0316929020        3.6118340271       -1.4148486434
 C         -0.2663813623        2.6528526358       -0.4524239829
 N         -1.5964188080        2.3829883749       -0.0791074752
 S         -2.0024518494        0.7969723233        0.3420701839
 O         -1.5964897621        0.5569559834        1.7051566825
 O         -1.5202750921       -0.1372992717       -0.6492448247
 C         -3.7809324696        0.9096267301        0.2663110287
 C         -4.4386926429        1.5769334333        1.2825997321
 C         -5.8175036883        1.6997401631        1.2209338884
 C         -6.5122217393        1.1563979608        0.1500775079
 C         -5.8390649511        0.4871313186       -0.8605816484
 C         -4.4593482180        0.3625110504       -0.8057391873
 H         -3.8931426164       -0.1517376227       -1.5657146789
 H         -6.3814735002        0.0623323217       -1.6897257162
 H         -7.5855209898        1.2520433846        0.1052643659
 H         -6.3442509714        2.2170966591        2.0064184516
 H         -3.8565527837        1.9735006024        2.0980408009
 H         -2.2672061106        2.7658853200       -0.7321265820
 H         -0.7632113530        4.1566523124       -1.9009674420
 H          1.5911034026        4.6008664726       -2.4791262134
 H          3.3985466472        3.3006842072       -1.4432881852
 C          3.1295632910        1.2558660228        0.4264031103
 H          3.2874475324        1.5833638972        1.4650772080
 C          4.4573765549        1.2690567126       -0.3006207751
 C          5.5000450520        2.2879208860        0.0465646496
 C          5.6904229620        0.8556580033        0.4431428652
 H          6.4325164486        0.2680856316       -0.0759141178
 H          5.5717375974        0.5893686192        1.4836314174
 H          5.2646355481        2.9997194014        0.8233609802
 H          6.1177203374        2.6837729060       -0.7454036262
 H          4.3652260625        0.9557467410       -1.3340128978
 O          2.2302969570       -0.2786488898       -1.8163862106
