  62
        -98.93718475
 C         -0.9316187747       -1.3435387679       -0.5046439333
 C         -1.9685266400       -1.5997484402        0.4270199321
 C         -2.9549952700       -0.5303306992        0.6454410139
 C         -2.8289151516        0.6275041621       -0.0289707069
 C         -3.6374429099        1.9052731585        0.0436978085
 C         -5.0503800418        1.9039100976        0.6238972401
 C         -6.0697637850        1.0775810102       -0.1577408538
 H         -7.0171575143        1.1068932169        0.3853482667
 H         -6.2303754096        1.5471220321       -1.1314899006
 C         -5.6864162633       -0.3797340614       -0.4043739720
 H         -4.8226499212       -0.4249699098       -1.0709467219
 H         -6.5187381570       -0.8602320877       -0.9261555464
 C         -5.3879476797       -1.2006709026        0.8496327323
 H         -5.3146088913       -2.2478381676        0.5441127639
 H         -6.2199948448       -1.1157926954        1.5512067520
 C         -4.0827411277       -0.8432085209        1.5854355754
 H         -4.2332010843       -0.0261940992        2.2872454600
 H         -3.7692081556       -1.7179004993        2.1623630685
 H         -5.3908603150        2.9429431625        0.6122975949
 H         -5.0325853303        1.5899758993        1.6632971174
 H         -3.6711705110        2.2902942684       -0.9797430483
 H         -3.0303741989        2.6084452581        0.6233272099
 O         -1.8161154534        0.8314086870       -0.9173511966
 C         -0.8517727959       -0.1312024770       -1.1896487752
 O         -0.0230907892        0.2285676704       -2.0441308309
 O         -2.0649344863       -2.6874272352        1.0577642081
 C          0.1015694471       -2.4409812767       -0.6839648967
 C          1.2283278766       -2.2634660854        0.3020408744
 C          1.6831654847       -3.3288875681        1.0702951439
 C          2.7131019712       -3.1512267143        1.9770266623
 C          3.3131375324       -1.9139912127        2.1263539806
 C          2.8617598310       -0.8405606671        1.3662673815
 C          1.8207290596       -1.0197192568        0.4676307726
 H          1.4767226319       -0.1834654670       -0.1203649598
 N          3.4210328213        0.4355113081        1.5133120248
 S          3.5716529766        1.4388740973        0.1810385023
 O          3.8937927134        0.6871389105       -1.0087855558
 O          4.5618935378        2.4161370126        0.5885398883
 C          2.0055902167        2.2678431890        0.0293229117
 C          1.5721834709        2.6463930989       -1.2245317954
 C          0.3936654127        3.3661442533       -1.3363906443
 C         -0.3270654109        3.6908294180       -0.1992228692
 C          0.1183030014        3.2961651940        1.0532810702
 C          1.2990063762        2.5820845164        1.1733163586
 H          1.6729682158        2.2580878477        2.1307222296
 H         -0.4494878833        3.5420948470        1.9369212435
 H         -1.2438418922        4.2518325756       -0.2928240577
 H          0.0380806259        3.6567880736       -2.3116346247
 H          2.1483686941        2.3541938418       -2.0875911478
 H          4.2215347207        0.4923807661        2.1256860907
 H          4.1200378048       -1.7745990393        2.8294842189
 H          3.0561522430       -3.9848620252        2.5706818541
 H          1.2141958016       -4.2958755882        0.9628737037
 H         -0.4224624565       -3.3732926085       -0.4179171712
 C          0.5952541626       -2.5969483202       -2.1142433509
 C          1.9137039740       -2.0853121071       -2.6026498185
 C          1.7035923950       -3.5581771940       -2.4294216594
 H          1.6187751969       -4.1760976232       -3.3106155746
 H          2.1990506937       -4.0373450089       -1.5983926386
 H          1.9473754526       -1.6783836993       -3.6021610643
 H          2.5604182956       -1.5619887422       -1.9147910255
 H         -0.2237860810       -2.5502839821       -2.8256906776
