  62
        -98.93961769
 C         -1.6025047073       -1.5279311063        0.3279120605
 C         -1.6693067492       -0.3849050112        1.1643811574
 C         -2.8605707039        0.4689553553        1.0340605081
 C         -3.8234251494        0.1127842348        0.1664644165
 C         -5.0994618504        0.8498885658       -0.1313469783
 C         -4.9306262667        1.7597287321       -1.3593813598
 C         -4.3711812073        3.1485370643       -1.0540378143
 H         -4.1693497898        3.6351629801       -2.0108726185
 H         -5.1342127618        3.7381052904       -0.5415346377
 C         -3.0907735016        3.1645719208       -0.2142809694
 H         -2.5897128483        4.1184686841       -0.3894277893
 H         -2.4212041489        2.3751801549       -0.5607349079
 C         -3.3524629293        3.0154692495        1.2928103469
 H         -2.8258893212        3.8072884908        1.8299316702
 H         -4.4147245896        3.1699200045        1.4822831194
 C         -2.9113118666        1.6820252276        1.9219304283
 H         -1.8959642266        1.7788775285        2.3197552300
 H         -3.5574861134        1.4620082835        2.7782264321
 H         -4.2771521907        1.2458725668       -2.0689668408
 H         -5.9027658076        1.8833734063       -1.8407732232
 H         -5.4253955672        1.4169783826        0.7358870762
 H         -5.8515573110        0.0920041909       -0.3603485438
 O         -3.7240842624       -0.9920887541       -0.6174031561
 C         -2.6154043613       -1.8233201484       -0.5851648352
 O         -2.6768678851       -2.7603917585       -1.4040388629
 O         -0.7653312985       -0.0898185918        1.9929855725
 C         -0.3630323306       -2.3957229852        0.4665380223
 C          0.6771297559       -2.0033990554       -0.5556307222
 C          0.4561425077       -2.1685280536       -1.9192977086
 C          1.4249709282       -1.7945174945       -2.8319762209
 C          2.6204460060       -1.2399789649       -2.4078664385
 C          2.8500402061       -1.0690741287       -1.0478251494
 C          1.8807886606       -1.4592323469       -0.1331253129
 H          2.0742705417       -1.3279924568        0.9203670146
 N          4.0615936516       -0.5297475114       -0.5893452945
 S          4.0956177518        0.5807396070        0.6622186457
 O          5.4352684837        1.1249414984        0.6116058949
 O          3.7170963954       -0.0543166562        1.8978299200
 C          2.9245429930        1.8405308093        0.1933055376
 C          1.6216397669        1.7973034264        0.6450892734
 C          0.7361405198        2.7736617309        0.2146988118
 C          1.1595795749        3.7653401698       -0.6550073660
 C          2.4733938650        3.7952595936       -1.0986879572
 C          3.3636715983        2.8238061795       -0.6737431855
 H          4.3968785425        2.8185914114       -0.9814748298
 H          2.8035514087        4.5701154860       -1.7716946018
 H          0.4622096102        4.5191328137       -0.9851382054
 H         -0.2828101866        2.7429501128        0.5655342855
 H          1.2993866343        1.0200904185        1.3203125710
 H          4.7027304894       -0.2622323943       -1.3220856977
 H          3.3732307865       -0.9463875227       -3.1235234907
 H          1.2451336666       -1.9297646836       -3.8878345952
 H         -0.4830264678       -2.5825785565       -2.2531440016
 H          0.0465687660       -2.1573475495        1.4580818403
 C         -0.6407278002       -3.8846215485        0.4152311373
 C          0.3672034754       -4.8248636012        1.0023269241
 C         -0.9508423691       -4.6163605521        1.6847689856
 H         -1.6808472350       -5.4112395558        1.6553112318
 H         -0.9649401576       -4.0452879951        2.6019910437
 H          0.5454535693       -5.7654205685        0.5042719999
 H          1.2473923489       -4.3944307284        1.4567851725
 H         -1.1629580578       -4.1993960983       -0.4782618454
