  62
        -98.93571402
 C         -2.6072516393       -0.0165572734       -0.5291661454
 C         -2.0643300538       -0.4203913012        0.7140133054
 C         -1.6181337550       -1.8253980858        0.8201738829
 C         -1.7530573657       -2.6361957981       -0.2427257402
 C         -1.3491917630       -4.0788109415       -0.3928895439
 C          0.0974244733       -4.2000649580       -0.9023209788
 C          1.1525077071       -4.3003118536        0.1959838232
 H          1.0220377201       -5.2396593801        0.7380900165
 H          2.1294441985       -4.3295374776       -0.2917375153
 C          1.1418174360       -3.1434161570        1.1962317522
 H          2.1121670548       -3.1195181866        1.6970672443
 H          1.0402428815       -2.1958492928        0.6623388873
 C          0.0379279445       -3.2628549724        2.2570674920
 H         -0.4090709876       -4.2556859762        2.2156741952
 H          0.4804944596       -3.1609879116        3.2507540912
 C         -1.0486594962       -2.1911757347        2.1649401330
 H         -0.6459106429       -1.2503803268        2.5567401442
 H         -1.8815800489       -2.4676798103        2.8229553481
 H          0.1741160408       -5.0891523714       -1.5318817850
 H          0.3116381805       -3.3303120544       -1.5294857051
 H         -1.4858383898       -4.6220937687        0.5372250539
 H         -2.0207147243       -4.5009537335       -1.1438100109
 O         -2.2800868330       -2.2031528473       -1.4247851011
 C         -2.6773210506       -0.8949498989       -1.6104127617
 O         -3.0782604168       -0.6375589993       -2.7649875098
 O         -1.9522530398        0.3490054276        1.7047068986
 C         -2.9945103132        1.4281472263       -0.8022914348
 C         -1.8975420457        2.3345669354       -0.2959406407
 C         -2.1117492562        3.4814630035        0.4560451948
 C         -1.0377126282        4.2309206631        0.9061284491
 C          0.2622054816        3.8383802867        0.6467919800
 C          0.4862265094        2.6940921366       -0.1101027821
 C         -0.5901501202        1.9812062534       -0.6064654803
 H         -0.4068816899        1.0964005223       -1.1987104384
 N          1.7937787144        2.2341612574       -0.3860062549
 S          2.0711717022        0.6035052543       -0.0062193525
 O          1.4492689078       -0.2315158302       -1.0030989285
 O          1.7159346929        0.3552746212        1.3715028663
 C          3.8431136833        0.5330172551       -0.1973626272
 C          4.6526972482        0.5351664626        0.9222320189
 C          6.0285645216        0.5089629809        0.7548858411
 C          6.5678754024        0.4846994065       -0.5222849101
 C          5.7420643295        0.4820815132       -1.6369024507
 C          4.3659102560        0.5066653117       -1.4761148491
 H          3.6839113721        0.4971216037       -2.3104715039
 H          6.1645437845        0.4604254862       -2.6285018702
 H          7.6385844077        0.4648704157       -0.6503338768
 H          6.6725481948        0.5073973114        1.6194878687
 H          4.1865864665        0.5471706087        1.8944276075
 H          2.4887106416        2.7978788700        0.0889805332
 H          1.0968870841        4.4039679537        1.0336174820
 H         -1.2168833546        5.1196664005        1.4923887911
 H         -3.1155221666        3.7771484343        0.7138372012
 H         -3.0113017207        1.5075184941       -1.9029568159
 C         -4.3833535368        1.8200194360       -0.3194824668
 C         -5.4297025827        0.7827955241       -0.0432171428
 C         -4.8373488264        1.5683931437        1.0859047803
 H         -5.4527281870        2.3145128587        1.5672112694
 H         -4.1427675829        1.0761456151        1.7477619226
 H         -6.4466282296        0.9903216259       -0.3411885466
 H         -5.1457067578       -0.2544803857       -0.1494015065
 H         -4.7335971231        2.7344473388       -0.7884337097
