  62
        -98.94359386
 C         -2.5564405910       -0.0170451714       -0.1424852703
 C         -2.4235052595       -1.1565416269       -0.9747501982
 C         -1.9365624203       -2.3799757887       -0.3303588046
 C         -1.6440013337       -2.3683085510        0.9823495668
 C         -1.1285334266       -3.5297823972        1.7876541596
 C          0.3937866990       -3.7014774235        1.6949040988
 C          0.8967776249       -4.2863318561        0.3744722849
 H          1.9357861120       -4.5837383744        0.5292537796
 H          0.3298870506       -5.1868774209        0.1343291075
 C          0.8391691501       -3.3078121753       -0.8066955382
 H          0.7564871648       -2.2838519704       -0.4327189117
 H          1.7761829287       -3.3533824663       -1.3678634271
 C         -0.2905445375       -3.5685367811       -1.8037778065
 H         -0.2571951867       -2.7778587078       -2.5583698073
 H         -0.1218514498       -4.5239871762       -2.3068787354
 C         -1.6971269726       -3.5838177729       -1.1910654881
 H         -2.4243982555       -3.5591793783       -2.0067700164
 H         -1.8460399537       -4.4974852774       -0.6154695476
 H          0.8616171008       -2.7270154068        1.8577482061
 H          0.7005319353       -4.3655552779        2.5065197492
 H         -1.3918172591       -3.3279086508        2.8281660490
 H         -1.6237530538       -4.4489272608        1.4730087632
 O         -1.8022529651       -1.2628902104        1.7536423523
 C         -2.1949815022       -0.0501884955        1.2064607493
 O         -2.2021715702        0.8880045841        2.0259804654
 O         -2.6936005947       -1.1478108656       -2.2073704382
 C         -2.9048463593        1.3059417386       -0.8068242391
 C         -1.8402477214        2.3054196056       -0.4279891246
 C         -2.0838307701        3.5379416196        0.1603185765
 C         -1.0259659322        4.3402829281        0.5550105006
 C          0.2826366989        3.9241573288        0.3966714193
 C          0.5355416483        2.6963790098       -0.2069784417
 C         -0.5223948958        1.9206404737       -0.6435825502
 H         -0.3190108200        0.9681185068       -1.1128313357
 N          1.8497185159        2.2285422910       -0.3914064568
 S          2.0923883117        0.5553628053       -0.3613349832
 O          1.8032225411        0.0343979883       -1.6744403226
 O          1.3868769617       -0.0475948532        0.7466618483
 C          3.8519440264        0.4948365641       -0.0794438163
 C          4.6988510892        0.7575990131       -1.1399034974
 C          6.0674479318        0.7431754259       -0.9235228299
 C          6.5639646773        0.4670256807        0.3420351989
 C          5.7020727270        0.2022231658        1.3955265182
 C          4.3317186668        0.2171970711        1.1860955986
 H          3.6225361847        0.0121331696        1.9723089244
 H          6.0900737033       -0.0156354155        2.3774713407
 H          7.6295459747        0.4554791147        0.5080088388
 H          6.7406213163        0.9457549338       -1.7407446888
 H          4.2657011459        0.9561456531       -2.1062500989
 H          2.5230797965        2.7152703862        0.1845366817
 H          1.1020895906        4.5357438384        0.7425408708
 H         -1.2260416194        5.2934383611        1.0208186237
 H         -3.0973693866        3.8558503621        0.3421411964
 H         -2.8066973549        1.0977915523       -1.8865396779
 C         -4.3264978047        1.7969817233       -0.5908625091
 C         -5.4315441301        0.8351206282       -0.2738899415
 C         -4.9788281618        1.8222338283        0.7576216786
 H         -5.6321667194        2.6502226068        0.9915141656
 H         -4.4024697057        1.4667155289        1.5964687295
 H         -6.3918871663        0.9817350382       -0.7450372425
 H         -5.1628799993       -0.2028394106       -0.1387700826
 H         -4.5786565644        2.6088732384       -1.2665873356
