  62
        -98.94089029
 C         -1.2073822095       -1.3117709406        0.0458716201
 C         -2.0308471198       -0.8279968506        1.0862175999
 C         -2.7663742398        0.4207330093        0.8192077897
 C         -2.6071680295        1.0391032193       -0.3661122003
 C         -3.2033329594        2.3218412793       -0.9075640204
 C         -4.3887543096        2.9894349992       -0.2150056007
 C         -5.6979696396        2.2042392192       -0.2874572310
 H         -6.4424322997        2.7238242291        0.3199274188
 H         -6.0506539693        2.2107910891       -1.3219683311
 C         -5.6195142596        0.7472915792        0.1618768691
 H         -6.6161830496        0.3104490191        0.0549876488
 H         -4.9533083494        0.1929497992       -0.5022233108
 C         -5.1714739499        0.5314053692        1.6060160592
 H         -5.8078304301        1.1088856092        2.2795284290
 H         -5.3129639899       -0.5274514108        1.8395196292
 C         -3.7017576600        0.8775986793        1.9015740695
 H         -3.4062494802        0.3425920693        2.8090924896
 H         -3.5769864101        1.9402322893        2.0956489295
 H         -4.1418116399        3.2233671893        0.8163583593
 H         -4.5499993996        3.9431641092       -0.7250060108
 H         -2.3780053295        3.0400073593       -0.9450869203
 H         -3.4739210892        2.1068099892       -1.9460911405
 O         -1.7621818593        0.5559271393       -1.3227837401
 C         -1.0496387993       -0.6187324506       -1.1535052599
 O         -0.3314693090       -0.9292194906       -2.1198525497
 O         -2.1421007500       -1.4084653406        2.2010943899
 C         -0.4352975895       -2.6031097206        0.2484527603
 C          1.0430061705       -2.3232556305        0.1451829707
 C          1.9051110908       -3.0178694305       -0.6916820291
 C          3.2452213508       -2.6744246004       -0.7601519588
 C          3.7553127405       -1.6432083004        0.0064566013
 C          2.9024759903       -0.9502482204        0.8566308511
 C          1.5621677603       -1.2933834305        0.9216352008
 H          0.8986645001       -0.7472889705        1.5813769306
 N          3.4117840701        0.1076718196        1.6429205511
 S          3.9801483802        1.4419651497        0.8038821012
 O          5.1448555104        1.0559845097        0.0499953015
 O          4.1744571699        2.4693215797        1.8017953213
 C          2.6565310304        1.9018460396       -0.2982241791
 C          2.5515345607        1.2802098495       -1.5262529991
 C          1.4924130509        1.6114036095       -2.3555479593
 C          0.5619802308        2.5527761794       -1.9443102196
 C          0.6792137005        3.1648119695       -0.7058044896
 C          1.7322971403        2.8332345895        0.1305493307
 H          1.8630325400        3.2903207296        1.0986373307
 H         -0.0446881096        3.8982681794       -0.3865506397
 H         -0.2621193491        2.8014485194       -2.5942469498
 H          1.3851564912        1.1215301994       -3.3092718593
 H          3.2949328108        0.5555401296       -1.8155839889
 H          2.7585061799        0.4208766896        2.3478059210
 H          4.7914496405       -1.3513989303       -0.0499377585
 H          3.9018306109       -3.2178108304       -1.4226100887
 H          1.5279315609       -3.8225901005       -1.3006682892
 H         -0.6540949497       -2.9184540506        1.2793858703
 C         -0.9246806892       -3.6734807506       -0.7033050698
 C         -0.7907083892       -5.1214234506       -0.3404506297
 C         -2.1396481693       -4.4690546807       -0.3350417600
 H         -2.8427228991       -4.7273744507       -1.1126717702
 H         -2.6029037295       -4.2559738207        0.6173995799
 H         -0.5695970490       -5.8318536506       -1.1225708496
 H         -0.3388614694       -5.3585870606        0.6108298304
 H         -0.8091057490       -3.3915507306       -1.7436581197
