  62
        -98.94641459
 C          1.5298555751        1.1245433574        0.0143537003
 C          2.5607669184        0.8073953141        0.9359405158
 C          3.2726337361       -0.4557709550        0.7037450003
 C          2.8968292278       -1.2419045778       -0.3212467199
 C          3.5543821589       -2.5379668335       -0.6952353703
 C          4.6790243796       -2.3164686661       -1.7164174286
 C          5.6565607656       -1.2072281570       -1.3282284295
 H          6.4235949444       -1.1633530165       -2.1045234010
 H          5.1323941453       -0.2488516221       -1.3409313664
 C          6.3246694630       -1.4000019842        0.0403076695
 H          6.2308630313       -2.4397724389        0.3557211450
 H          7.3912085147       -1.1867712669       -0.0576235540
 C          5.7869867012       -0.4851944675        1.1423933860
 H          6.4670573885       -0.5461132911        1.9961814865
 H          5.7932614383        0.5505601462        0.7934981789
 C          4.3792637117       -0.8142117128        1.6551036240
 H          4.2055556425       -0.2173128356        2.5551112863
 H          4.3257539894       -1.8699380129        1.9283960776
 H          5.2219839808       -3.2551380556       -1.8407881889
 H          4.2291068215       -2.0549414086       -2.6770616441
 H          3.9518647698       -3.0096228400        0.2012689725
 H          2.8024399823       -3.1940553390       -1.1371147553
 O          1.8892549807       -0.9174726585       -1.1691679008
 C          1.1862664798        0.2720976699       -1.0346617165
 O          0.3049584486        0.4325436350       -1.9005095621
 O          2.8682612644        1.5470873850        1.9075098532
 C          0.7408727891        2.4045241552        0.2447547178
 C         -0.6388452905        1.9931297055        0.6934040911
 C         -0.8606826255        1.6776897290        2.0312399896
 C         -2.0842648790        1.1881322732        2.4490173387
 C         -3.1033796455        0.9737901875        1.5368727627
 C         -2.8844904760        1.2724617380        0.1989215692
 C         -1.6713269616        1.8064529036       -0.2123937179
 H         -1.5178807988        2.0269022821       -1.2564424576
 N         -3.8880499632        0.9878372709       -0.7461776980
 S         -4.5700332617       -0.5391229695       -0.6499603198
 O         -4.9258012115       -0.8912661205       -2.0072642894
 O         -5.6658754618       -0.5103347458        0.2885455587
 C         -3.2947999908       -1.6280578433       -0.0310957312
 C         -3.5698549789       -2.4276704894        1.0603098236
 C         -2.5837912029       -3.2735810981        1.5413314062
 C         -1.3410363982       -3.3034370852        0.9277852473
 C         -1.0820741205       -2.4969781962       -0.1691828571
 C         -2.0650345747       -1.6517284157       -0.6581802482
 H         -1.8621021590       -1.0113867125       -1.5023969441
 H         -0.1153263167       -2.5059385595       -0.6478979003
 H         -0.5687539776       -3.9554736633        1.3047245331
 H         -2.7844687401       -3.9021510553        2.3939239955
 H         -4.5464860161       -2.3655048087        1.5123603579
 H         -3.6054272777        1.1865359959       -1.6955629444
 H         -4.0574665939        0.5712654968        1.8371532387
 H         -2.2435038361        0.9560699586        3.4908407647
 H         -0.0526682557        1.8053792255        2.7376302037
 H          1.2407271879        2.9100838090        1.0812084298
 C          0.7514487280        3.3228710414       -0.9585226489
 C          0.2847646040        4.7383599131       -0.8007257329
 C          1.7391116598        4.4479664476       -1.0142578606
 H          2.1812120014        4.6980230323       -1.9671451835
 H          2.4119538190        4.5655808439       -0.1775126484
 H         -0.2737426457        5.1911693342       -1.6056852987
 H         -0.0312567058        5.0505789189        0.1831396532
 H          0.5296160129        2.8184518139       -1.8908910246
