  62
        -98.93294737
 C         -1.6134507216       -0.8229150480        0.4313038459
 C         -1.9700865595        0.4719146993       -0.0244812231
 C         -3.2591973082        0.5968619055       -0.7237199477
 C         -4.0089945572       -0.5010002655       -0.9191413276
 C         -5.3250873418       -0.6256926780       -1.6457000343
 C         -6.3756108686        0.4666827795       -1.4055411681
 C         -6.3776052788        1.0642773832        0.0090212115
 H         -7.3944947295        1.0347716363        0.4048985068
 H         -5.7531147551        0.4613623937        0.6704212016
 C         -5.9018983812        2.5186183931        0.0434369383
 H         -6.3527135834        3.0541442346       -0.7949997599
 H         -6.2658413388        2.9850250526        0.9621173766
 C         -4.3867230999        2.7138395854        0.0058710077
 H         -3.9472492106        2.3787941181        0.9490704013
 H         -4.1883765479        3.7849857698       -0.0778091017
 C         -3.6535980481        1.9868827798       -1.1334186682
 H         -4.2459724952        1.9848712466       -2.0452181740
 H         -2.7189650110        2.5201645835       -1.3264584177
 H         -6.2403291452        1.2686226760       -2.1299650075
 H         -7.3487116421        0.0181133626       -1.6129914522
 H         -5.1155344601       -0.6913808688       -2.7175271147
 H         -5.7276278463       -1.5939764818       -1.3382695436
 O         -3.6203272990       -1.7302874862       -0.4800537137
 C         -2.4272152038       -1.9303243352        0.1989283584
 O         -2.2351305084       -3.1158303060        0.5301264565
 O         -1.2380642175        1.4824684464        0.1420849216
 C         -0.2785074436       -0.9629090411        1.1434520908
 C          0.7336688446       -1.5505352494        0.1906559070
 C          0.8446944280       -2.9176087196       -0.0378902831
 C          1.7652546294       -3.3998305472       -0.9510429845
 C          2.6135737891       -2.5375331296       -1.6243274509
 C          2.5163691554       -1.1717488214       -1.3965924069
 C          1.5666762350       -0.6879285236       -0.5093861704
 H          1.4551231979        0.3765777189       -0.3729855346
 N          3.3833810223       -0.2447405929       -2.0252136258
 S          4.5726349460        0.3706310790       -1.0009652850
 O          5.4667674542        1.1150256854       -1.8598351096
 O          5.1834654889       -0.6958449279       -0.2354151686
 C          3.7085694684        1.4734426569        0.0909997672
 C          3.2321030560        2.6678809749       -0.4114027602
 C          2.5314624115        3.5140460990        0.4328899003
 C          2.3208242123        3.1525499058        1.7549025285
 C          2.8134835638        1.9528852109        2.2453328497
 C          3.5153870349        1.1022550818        1.4069332194
 H          3.9097322479        0.1556383012        1.7409272575
 H          2.6462402173        1.6753536296        3.2742519969
 H          1.7654319430        3.8085728861        2.4065189739
 H          2.1435087598        4.4472854348        0.0577175557
 H          3.4154060439        2.9088370515       -1.4456227530
 H          3.8365288869       -0.6195061021       -2.8486053176
 H          3.3475664501       -2.9179396818       -2.3195646806
 H          1.8324390176       -4.4623928405       -1.1311111087
 H          0.1839044671       -3.5962125967        0.4772274534
 H          0.0365861103        0.0664839050        1.3619045336
 C         -0.3624433973       -1.7252252056        2.4492551332
 C          0.7937094052       -1.6411466523        3.3993452497
 C         -0.4994414585       -0.9604686096        3.7300453517
 H         -1.1156121238       -1.3756609752        4.5134530458
 H         -0.5403830836        0.1169364025        3.6663490990
 H          1.0690677572       -2.5235993799        3.9561254014
 H          1.6314209538       -1.0271050598        3.1043752643
 H         -0.8901045584       -2.6668457114        2.3735360097
