  62
        -98.94513242
 C          2.2773695208        0.6919368302       -0.0157798806
 C          3.2898956408        0.6818273205        0.9767742393
 C          4.1940945107       -0.4723850295        0.9616185497
 C          3.9982204706       -1.4603429399        0.0696950402
 C          4.8200708605       -2.7143535200       -0.0565785394
 C          6.0962250904       -2.5416981405       -0.8920941095
 C          7.2136924105       -1.7446454703       -0.2177011900
 H          7.4097596706       -2.1615852299        0.7705638602
 H          8.1150423305       -1.8885544406       -0.8167958300
 C          6.9360925207       -0.2396068302       -0.0984126706
 H          7.8221894807        0.3195016396       -0.4072081109
 H          6.1293664106        0.0370604896       -0.7811187506
 C          6.5736288008        0.2287261104        1.3109230493
 H          7.4255094909        0.0783435206        1.9776605793
 H          6.3613301209        1.3000579204        1.2715278488
 C          5.3509882408       -0.4744651892        1.9148836197
 H          5.0456188409        0.0747036712        2.8087706895
 H          5.6063631108       -1.4944453891        2.2010452601
 H          6.4760067103       -3.5413289906       -1.1156461892
 H          5.8309753704       -2.0678911408       -1.8401057697
 H          5.0801474005       -3.0840607796        0.9356672508
 H          4.1838571504       -3.4541683002       -0.5473645590
 O          2.9859286305       -1.4366110102       -0.8371792998
 C          2.1152096106       -0.3583949002       -0.9190505601
 O          1.2657544005       -0.4645602905       -1.8255477800
 O          3.4310016410        1.5954773109        1.8318754889
 C          1.3317459408        1.8814090803       -0.0577894010
 C         -0.0428046392        1.4159839305        0.3526070093
 C         -0.3292845691        1.2596070911        1.7063493194
 C         -1.5587904791        0.7805850914        2.1163567497
 C         -2.5264936892        0.4391200111        1.1868288699
 C         -2.2429966893        0.5721602505       -0.1650882002
 C         -1.0139061293        1.0739635502       -0.5746292405
 H         -0.8038217193        1.1602711198       -1.6287881805
 N         -3.2127635694        0.2240672102       -1.1195667900
 S         -4.0829236295       -1.1943424697       -0.9131500393
 O         -3.3298890395       -2.1948242094       -0.1923826989
 O         -4.5305350296       -1.5584280402       -2.2400847591
 C         -5.4940691594       -0.6802717291        0.0464470006
 C         -5.8575591393       -1.3925946186        1.1724393609
 C         -6.9678289892       -0.9842563683        1.8953977508
 C         -7.6919771192        0.1229746216        1.4812193404
 C         -7.3154949492        0.8262081411        0.3465764301
 C         -6.2078463793        0.4222127707       -0.3813823998
 H         -5.8840912593        0.9401821203       -1.2684994800
 H         -7.8804484292        1.6873012310        0.0277520398
 H         -8.5544912491        0.4396906919        2.0460953204
 H         -7.2616578392       -1.5305645579        2.7772809011
 H         -5.2603427494       -2.2431139386        1.4609297412
 H         -2.8879211294        0.3098224498       -2.0719885600
 H         -3.4833593992        0.0539159913        1.4990726601
 H         -1.7682546690        0.6692648719        3.1694135997
 H          0.4327167810        1.5078120214        2.4320037992
 H          1.7016883610        2.5701241406        0.7137732687
 C          1.3697403008        2.5862130297       -1.3974136613
 C          0.8023552209        3.9680755897       -1.5166773318
 C          2.2846197009        3.7583828395       -1.5804272419
 H          2.7836234008        3.8777270891       -2.5305358920
 H          2.8818510710        4.0624485299       -0.7333758720
 H          0.2815782808        4.2357329894       -2.4232869619
 H          0.3916031910        4.4145167201       -0.6239799020
 H          1.2561107407        1.9148667594       -2.2401041910
