  62
        -98.93825830
 C          0.5327107486        1.9197169532       -0.0187916597
 C          1.3283193693        1.2537307688        0.9443889353
 C          2.5050204530        0.5118645183        0.4558136950
 C          2.7566748980        0.4936929387       -0.8651175770
 C          3.8747264028       -0.1981945198       -1.6029666874
 C          4.1863772860       -1.6410753351       -1.1759450215
 C          5.5217037916       -1.7840310393       -0.4428731497
 H          5.8715652809       -2.8126470206       -0.5548387517
 H          6.2540027927       -1.1363447528       -0.9294062447
 C          5.4810019242       -1.4690159019        1.0514692974
 H          4.9508040644       -2.2683659685        1.5735121055
 H          6.5108330843       -1.4689627152        1.4161093962
 C          4.8291474916       -0.1353367614        1.4216521099
 H          5.2081419662        0.1596675595        2.4023904595
 H          5.1252437705        0.6427538792        0.7190499566
 C          3.2978483291       -0.2055263657        1.5144768949
 H          2.9676398629        0.2445002530        2.4561307588
 H          2.9748497113       -1.2505822614        1.5466196428
 H          3.3711304561       -2.0316524561       -0.5678729946
 H          4.2292409071       -2.2519581128       -2.0794580232
 H          4.7761323327        0.4154682452       -1.5268087508
 H          3.5720417020       -0.1804196011       -2.6526976707
 O          1.9822745876        1.1721087943       -1.7572773115
 C          0.8493278538        1.8763799273       -1.3775435192
 O          0.2472213050        2.4036364299       -2.3324170460
 O          1.0637331810        1.2736088032        2.1775349320
 C         -0.7097879360        2.6208217708        0.4922688490
 C         -1.9368538752        1.7372635192        0.4169821671
 C         -3.0030326478        1.9455188983        1.2871508650
 C         -4.1259524640        1.1412951891        1.2329350624
 C         -4.1984167602        0.0919416591        0.3331424397
 C         -3.1391930765       -0.1273629663       -0.5377552179
 C         -2.0299655139        0.7066320920       -0.5042845261
 H         -1.2340759005        0.5316499170       -1.2107867784
 N         -3.1544672351       -1.1997278255       -1.4487946962
 S         -1.8133012225       -2.2044500718       -1.4925177038
 O         -0.7097589255       -1.5550402160       -2.1517832757
 O         -2.2964212590       -3.4213036881       -2.1097911484
 C         -1.4406573358       -2.4935931630        0.2261384634
 C         -2.1992530934       -3.4163690602        0.9205753802
 C         -1.9829769416       -3.5734800337        2.2796894062
 C         -1.0324921616       -2.7941527977        2.9229766381
 C         -0.2787733347       -1.8729441079        2.2126581839
 C         -0.4797980631       -1.7251056047        0.8494856216
 H          0.0951086018       -1.0199502599        0.2694657183
 H          0.4485322056       -1.2452686141        2.7039520723
 H         -0.8752364797       -2.9037024184        3.9843224863
 H         -2.5613135661       -4.2939131269        2.8353304402
 H         -2.9286540038       -4.0000074916        0.3825840188
 H         -4.0012755496       -1.7505034672       -1.4216236156
 H         -5.0643863302       -0.5513210911        0.3034704100
 H         -4.9464208395        1.3184545292        1.9109150100
 H         -2.9441804340        2.7411809450        2.0133481179
 H         -0.5153113037        2.8162869085        1.5567952968
 C         -0.9837052447        3.9457833930       -0.1946363973
 C         -1.5808166584        5.0841612345        0.5748112857
 C         -0.1449390278        5.1388226909        0.1497803439
 H          0.1419932251        5.8105091622       -0.6449760998
 H          0.6157633388        5.0093008919        0.9060191742
 H         -2.2903218599        5.7243429698        0.0737228904
 H         -1.7840253768        4.9365117933        1.6243005915
 H         -1.2729989890        3.8314008136       -1.2318717190
