  62
        -98.93460887
 C         -1.3846415519       -1.5545095491        0.6253920465
 C         -1.5482902258       -0.2193233948        1.0700802945
 C         -2.8456748147        0.4296919239        0.8043041243
 C         -3.7997989216       -0.2770885828        0.1713632399
 C         -5.1655907151        0.1892183990       -0.2549451913
 C         -5.1170362307        1.0748919417       -1.5125546728
 C         -3.9821627214        2.0964692788       -1.5418654622
 H         -3.0291984315        1.5781188984       -1.4197447680
 H         -3.9766921581        2.5560765587       -2.5337269015
 C         -4.0878967288        3.2164217363       -0.5098333074
 H         -3.2502135582        3.8967155392       -0.6812903085
 H         -5.0099166725        3.7760884959       -0.6836394452
 C         -4.0595205425        2.7796423086        0.9554571941
 H         -5.0114514148        2.3443348794        1.2475033802
 H         -3.9329336855        3.6813096171        1.5620666271
 C         -2.9118985835        1.8444509532        1.3257428682
 H         -2.8728581065        1.7604223556        2.4188425391
 H         -1.9624182240        2.3059888314        1.0355456514
 H         -6.0752068977        1.5877796683       -1.6112478663
 H         -4.9945307547        0.4200611384       -2.3786795905
 H         -5.7488235767       -0.7057515778       -0.4822771270
 H         -5.6556544494        0.7033102425        0.5666968172
 O         -3.6044793325       -1.5643123194       -0.2286271743
 C         -2.4063894001       -2.2345732034       -0.0363516860
 O         -2.4028031524       -3.3943156004       -0.4885914677
 O         -0.6386854530        0.4146966917        1.6690271775
 C         -0.0262788787       -2.1847350844        0.8770357512
 C          0.8764643402       -1.8826272956       -0.2908681531
 C          0.5378681908       -2.2850555719       -1.5805213929
 C          1.3624938713       -1.9792796191       -2.6465811724
 C          2.5259355195       -1.2538781659       -2.4529159379
 C          2.8657988911       -0.8381137201       -1.1712451564
 C          2.0433861826       -1.1591571565       -0.0987611882
 H          2.3203314852       -0.8317628335        0.8917689763
 N          4.0376499703       -0.1047111671       -0.9459260908
 S          4.1042324058        1.0555051345        0.2511944779
 O          5.2124444149        1.9008763395       -0.1420927601
 O          4.2298046488        0.4291965026        1.5434475074
 C          2.5881449206        1.9913207225        0.1545321017
 C          1.9486323018        2.3518759555        1.3216308037
 C          0.8122347252        3.1405218622        1.2500977921
 C          0.3340350274        3.5475076757        0.0153946895
 C          0.9823496431        3.1702978964       -1.1504736556
 C          2.1245935347        2.3901818373       -1.0836015697
 H          2.6517405503        2.0938256742       -1.9759205198
 H          0.6013854398        3.4827735748       -2.1097501325
 H         -0.5508295262        4.1630455171       -0.0400961069
 H          0.3019872012        3.4223479962        2.1568249632
 H          2.3418655286        2.0025852292        2.2625682296
 H          4.5447718870        0.1693955123       -1.7741093978
 H          3.1671231698       -1.0120906826       -3.2867746653
 H          1.0938933364       -2.3019376831       -3.6411635921
 H         -0.3774320784       -2.8378684192       -1.7310874894
 H          0.3767390792       -1.6450279842        1.7488779245
 C         -0.0882331544       -3.6604771994        1.2429740851
 C          0.5570821017       -4.7448533741        0.4374051842
 C          1.1460756524       -4.3439288940        1.7541357601
 H          1.0585593844       -5.0179955183        2.5928320486
 H          2.0654134604       -3.7764705686        1.7384407529
 H          0.0370366571       -5.6880216774        0.3660842755
 H          1.0897961527       -4.4730960914       -0.4600204105
 H         -1.0220598688       -3.9220253472        1.7290199575
