  62
        -98.92740680
 C          2.5632928138        0.2737211742       -0.3010776857
 C          2.1757688953        1.3581860229       -1.1190828513
 C          1.6166526481        2.5405505444       -0.4433837234
 C          1.4571637206        2.5169645777        0.8929925797
 C          0.9213696066        3.5562276545        1.8555833029
 C          0.2342317317        4.8170352437        1.3397801504
 C         -1.1349626000        4.5784686969        0.7032747320
 H         -1.8379731030        4.3029133782        1.4935261146
 H         -1.4764730432        5.5186085455        0.2640220074
 C         -1.1952705479        3.4831186187       -0.3588789111
 H         -0.9454858536        2.5165948158        0.0863255710
 H         -2.2321663955        3.4182701456       -0.7026762549
 C         -0.3190470178        3.7155235435       -1.5880106970
 H         -0.5560273862        2.9329148634       -2.3143881693
 H         -0.5675910185        4.6784294682       -2.0397273608
 C          1.1971787419        3.6707920994       -1.3404032070
 H          1.5613988428        4.6204460618       -0.9561715706
 H          1.6892627169        3.4948514645       -2.3018216592
 H          0.0844806351        5.4669500489        2.2063011857
 H          0.8901640754        5.3493980046        0.6571706628
 H          0.2337075381        3.0166566158        2.5154347417
 H          1.7751860033        3.8519661874        2.4754603377
 O          1.8418919718        1.4441441521        1.6431576344
 C          2.3649685003        0.2935550228        1.0798169119
 O          2.6135575574       -0.6077574506        1.9006811849
 O          2.2860958608        1.3384906278       -2.3773152574
 C          3.0497086083       -1.0087213440       -0.9716385247
 C          2.0699250432       -2.0791223178       -0.5542199910
 C          2.2903218605       -3.2063007036        0.2248750514
 C          1.2302424104       -3.9985941379        0.6407279788
 C         -0.0749669211       -3.6823796299        0.3165852895
 C         -0.3064118372       -2.5694222673       -0.4784093309
 C          0.7536718218       -1.8052734217       -0.9238743266
 H          0.5521081782       -0.9269031540       -1.5263640487
 N         -1.6468643170       -2.1644567550       -0.7493889486
 S         -2.1658508471       -1.1622218479        0.5216740132
 O         -1.4016887423        0.0670242870        0.5362081818
 O         -2.1516590590       -1.9443521363        1.7314079331
 C         -3.8486234684       -0.8336303266        0.0309593922
 C         -4.7952295417       -1.8212686347        0.2243893219
 C         -6.0963606422       -1.5916574499       -0.1929737489
 C         -6.4262515443       -0.3866230656       -0.7957304269
 C         -5.4647653536        0.5946303422       -0.9835318230
 C         -4.1609635008        0.3704561892       -0.5692332856
 H         -3.3803593673        1.1053539709       -0.6886999584
 H         -5.7233816998        1.5311446097       -1.4509803529
 H         -7.4395488300       -0.2099502397       -1.1201144785
 H         -6.8472783432       -2.3514422669       -0.0481111103
 H         -4.4917121593       -2.7375355331        0.7025889880
 H         -1.6786214235       -1.5987039054       -1.5903688760
 H         -0.9076467580       -4.2573501556        0.6863200948
 H          1.4302744608       -4.8612911968        1.2583263437
 H          3.2789302503       -3.4677385741        0.5561922849
 H          2.8866570219       -0.8317350813       -2.0482638768
 C          4.5514537068       -1.1628511523       -0.8089717960
 C          5.2489472121       -1.7059247988        0.3988437310
 C          5.2941282387       -2.4621784632       -0.8964306988
 H          6.2267601463       -2.4706950674       -1.4410075011
 H          4.7264569032       -3.3727798032       -0.9954606996
 H          6.1467450610       -1.1994330406        0.7236198102
 H          4.6433800910       -2.0582557363        1.2174523554
 H          5.0402448445       -0.3120353352       -1.2793720943
