  62
        -98.94301661
 C         -1.9677120224       -0.1107275252       -0.3049013016
 C         -2.8210680663        0.7321085375        0.4492172048
 C         -4.1427568536        0.1768149382        0.7736432851
 C         -4.4637641943       -1.0721678269        0.3938052151
 C         -5.7569687167       -1.7849895626        0.6823831636
 C         -6.8844644541       -1.4590841179       -0.3066836962
 C         -7.4922541229       -0.0632169316       -0.1628475079
 H         -8.4058210694       -0.0488594500       -0.7606326943
 H         -7.7806760401        0.1004439490        0.8759441569
 C         -6.5774531603        1.0768862033       -0.6316754547
 H         -5.7807167302        0.6699315330       -1.2586310830
 H         -7.1494910573        1.7705033407       -1.2521046704
 C         -5.9496526890        1.8919986027        0.4988814965
 H         -5.2950660195        2.6458135679        0.0544478095
 H         -6.7335042408        2.4115365133        1.0544762946
 C         -5.1176347441        1.0647018323        1.4873109196
 H         -4.5439421792        1.7529787057        2.1124872307
 H         -5.7721286540        0.4733626688        2.1271412582
 H         -6.5055604146       -1.5891829459       -1.3231297783
 H         -7.6766258267       -2.1952355183       -0.1512881149
 H         -5.5420370249       -2.8539959247        0.6194383175
 H         -6.0838943554       -1.5557183383        1.6970566040
 O         -3.6061529158       -1.8631975585       -0.3047885196
 C         -2.3597357228       -1.3981391081       -0.6855796895
 O         -1.6965184571       -2.2164010195       -1.3559328106
 O         -2.5199587895        1.8872626592        0.8480104999
 C         -0.5754479548        0.3008445946       -0.7591473063
 C          0.4370045294        0.1178828518        0.3463655517
 C          0.3474535801        0.8262841511        1.5409120894
 C          1.2833413260        0.6349873837        2.5400461682
 C          2.3360582456       -0.2460329113        2.3615968604
 C          2.4371944678       -0.9547710796        1.1714146692
 C          1.4852796153       -0.7748731445        0.1764774325
 H          1.5713670242       -1.3439826273       -0.7371608938
 N          3.5013058553       -1.8526286142        0.9521753545
 S          4.4908055203       -1.5828090068       -0.3718082997
 O          3.7458438056       -1.7616776205       -1.5907796625
 O          5.6263898528       -2.4554064730       -0.1746233788
 C          4.9931115724        0.1200075232       -0.1949523182
 C          4.1605671414        1.1175133802       -0.6622109313
 C          4.5149676335        2.4397359800       -0.4459544573
 C          5.6883828467        2.7403270310        0.2284477308
 C          6.5154763352        1.7268870812        0.6888016242
 C          6.1634892658        0.4029364598        0.4820360158
 H          6.7773773455       -0.4165367526        0.8194875235
 H          7.4288441959        1.9638388008        1.2102289040
 H          5.9590190776        3.7709611160        0.3950994268
 H          3.8695713965        3.2264248846       -0.8020848136
 H          3.2562376297        0.8485928124       -1.1829251042
 H          4.0735478677       -2.0083674816        1.7706706822
 H          3.0700709929       -0.3908442267        3.1400240600
 H          1.1978359260        1.1842515836        3.4652196083
 H         -0.4714984818        1.5145082691        1.6817565111
 H         -0.3119153339       -0.3964321168       -1.5665865279
 C         -0.5187401790        1.7118729616       -1.3123461158
 C          0.5445723423        2.0564012425       -2.3094673124
 C         -0.8860191892        1.9492770323       -2.7444870066
 H         -1.4207659958        2.8525797233       -2.9965870225
 H         -1.1762076809        1.0916520021       -3.3348385996
 H          0.9950321119        3.0360024671       -2.2669671867
 H          1.2209071658        1.2708801133       -2.6148187697
 H         -0.8056172908        2.4687870124       -0.5948850226
