  62
        -98.94969478
 C         -0.8227261419       -1.7807447142       -0.1468757324
 C         -1.9955398578       -1.6367469381        0.6293655444
 C         -2.9835206075       -0.6714164239        0.1301532148
 C         -2.7293185733        0.0003145504       -1.0076277865
 C         -3.6538722401        1.0064823160       -1.6310878158
 C         -3.3689096685        2.4364571208       -1.1515720348
 C         -3.2252586661        2.5706285475        0.3647497787
 H         -2.3328202148        2.0365902342        0.7036531432
 H         -3.0547183532        3.6280409686        0.5826316728
 C         -4.4413123715        2.0772604162        1.1609546671
 H         -4.6593296057        2.8040015692        1.9464307781
 H         -5.3160061797        2.0286204726        0.5106376238
 C         -4.2444143279        0.7255938990        1.8498078220
 H         -3.3043426418        0.7373101088        2.4086627629
 H         -5.0536619979        0.5912414011        2.5729466935
 C         -4.2454355832       -0.4999560455        0.9270311554
 H         -5.1182920217       -0.4655361942        0.2713339762
 H         -4.3239365292       -1.3909436943        1.5572119210
 H         -2.4440001053        2.7866031676       -1.6151734309
 H         -4.1808231524        3.0808940237       -1.4947951417
 H         -4.6804809803        0.7352291387       -1.3911432536
 H         -3.5228337022        0.9641578756       -2.7138442671
 O         -1.5842685542       -0.1546575562       -1.7199931734
 C         -0.5921870254       -1.0299721082       -1.2990644445
 O          0.4178308108       -1.0536248416       -2.0257661853
 O         -2.2117335948       -2.2945347616        1.6846018890
 C          0.2410051391       -2.7644256920        0.2989922675
 C          1.5555520356       -2.0686909989        0.5537668539
 C          2.7846424771       -2.6583432112        0.2818438699
 C          3.9623482570       -1.9902523156        0.5672657365
 C          3.9426808507       -0.7223418502        1.1188823851
 C          2.7190203711       -0.1257861467        1.3985193154
 C          1.5420120275       -0.8027538532        1.1239492470
 H          0.5999732997       -0.3275917712        1.3551978886
 N          2.6493968764        1.1595978845        1.9655046813
 S          1.5678848937        2.2573458133        1.3220355814
 O          2.0539709122        3.5445258969        1.7768099770
 O          0.2199636333        1.9284299340        1.7131459150
 C          1.7442390220        2.1502891301       -0.4487572698
 C          0.6090294858        2.1088312109       -1.2279659862
 C          0.7364180179        2.0480711015       -2.6055670376
 C          1.9973539199        2.0280882815       -3.1776058738
 C          3.1316676110        2.0775023569       -2.3822184891
 C          3.0083036149        2.1429069254       -1.0045471729
 H          3.8753137212        2.1895378233       -0.3660336825
 H          4.1114747817        2.0602722567       -2.8319241393
 H          2.0952382906        1.9688821720       -4.2500795153
 H         -0.1474674145        1.9960164915       -3.2208736616
 H         -0.3516124891        2.1080775141       -0.7386687663
 H          3.5448182742        1.5925557228        2.1407009430
 H          4.8616461768       -0.2002051680        1.3375727728
 H          4.9090989471       -2.4607257633        0.3503914938
 H          2.8193791474       -3.6434134256       -0.1536810973
 H         -0.1182655266       -3.1676701070        1.2587060209
 C          0.3513795508       -3.9037962665       -0.6948874267
 C          0.6805037731       -5.2907511751       -0.2315846762
 C         -0.7066351194       -4.9649975682       -0.6946558722
 H         -1.0439288758       -5.3584910124       -1.6417421451
 H         -1.4887874905       -4.8819778669        0.0461231366
 H          1.2957738285       -5.9133273752       -0.8636551983
 H          0.8361158917       -5.4424008973        0.8259616286
 H          0.7331538438       -3.5782852797       -1.6559969241
