  62
        -98.94526367
 C         -2.3452429129       -1.0500915359        0.1408188049
 C         -1.9493254784       -0.1246889443       -0.8552616257
 C         -2.5837857647        1.2000506903       -0.7824686406
 C         -3.4793933890        1.4518694806        0.1897168885
 C         -4.1555222664        2.7736254189        0.4111947748
 C         -3.3543802335        3.6508269763        1.3838021435
 C         -1.8673691030        3.7503446553        1.0426419497
 H         -1.4075063843        4.4125243757        1.7797955298
 H         -1.4079205220        2.7663278039        1.1650378818
 C         -1.5744912177        4.2736741825       -0.3704421802
 H         -0.7754184757        5.0156531062       -0.3091523976
 H         -2.4557363738        4.7794278913       -0.7665410278
 C         -1.1154279611        3.2016873195       -1.3606861820
 H         -0.7354077452        3.7068232696       -2.2524933670
 H         -0.2922299256        2.6291916594       -0.9261403059
 C         -2.1908719674        2.2108715151       -1.8227227234
 H         -3.0660420410        2.7554324055       -2.1824711746
 H         -1.7750881308        1.6353660108       -2.6547604401
 H         -3.4482956281        3.2302909720        2.3879503116
 H         -3.7948824715        4.6493939704        1.3924277568
 H         -4.2696733872        3.2824337726       -0.5439195452
 H         -5.1441783850        2.5879590005        0.8342875716
 O         -3.8359816374        0.5351133085        1.1262259987
 C         -3.2745490258       -0.7323894124        1.1301976714
 O         -3.6731200008       -1.4696491875        2.0554691964
 H         -0.2330889085       -0.7435284278        1.5336310942
 C          0.3749046343       -1.4541712508        0.9866675017
 C         -0.2489889643       -2.4096902087        0.1949859968
 C          0.5464061536       -3.3159664871       -0.4955766457
 C          1.9252467120       -3.2641792516       -0.3886671986
 C          2.5416310688       -2.3103451673        0.3994887453
 C          1.7574115760       -1.3912168270        1.0850236785
 N          2.3628668611       -0.4153925989        1.8918397479
 S          3.7724502969        0.3410700839        1.4087221938
 O          4.8780314343       -0.5738672058        1.5484510175
 O          3.8353052703        1.5408368397        2.2126424749
 C          3.5528823704        0.7666673687       -0.3083044337
 C          2.7191307580        1.8241399939       -0.6133843498
 C          2.5256598721        2.1642663235       -1.9418676602
 C          3.1559859698        1.4359749681       -2.9389747924
 C          3.9920989374        0.3788806140       -2.6168570779
 C          4.1975840721        0.0406996491       -1.2889547463
 H          4.8538426780       -0.7628906208       -0.9984140047
 H          4.4849619656       -0.1821473134       -3.3944207119
 H          2.9960877832        1.6984980192       -3.9727074458
 H          1.8830186876        2.9918105733       -2.1955850678
 H          2.2519583276        2.3724483847        0.1897450433
 H          1.7174540332        0.2415066278        2.3028565056
 H          3.6127150002       -2.2713801977        0.5077499828
 H          2.5296309436       -3.9790312487       -0.9258562037
 H          0.0855583545       -4.0662153020       -1.1166527876
 C         -1.7579001702       -2.4484481303        0.1444849957
 H         -2.1142919079       -2.9269058326        1.0693239219
 C         -2.2935942011       -3.2275029257       -1.0410390434
 C         -2.5362377541       -4.7025370542       -0.9377644986
 C         -3.6951348513       -3.7537720470       -0.9815073362
 H         -4.3005053207       -3.7149912079       -1.8747085058
 H         -4.2501528066       -3.5782157433       -0.0709840210
 H         -2.3489833053       -5.3184028678       -1.8046066294
 H         -2.3131203403       -5.1832052863        0.0029289264
 H         -1.9489385764       -2.8282648667       -1.9881137312
 O         -1.1093305099       -0.3869407317       -1.7538314455
