  62
        -98.94460753
 C         -2.4355616991       -1.1128770829       -0.0400224250
 C         -3.0538534211       -0.3137336706        0.9586013539
 C         -3.6059543717        0.9734494972        0.5223152609
 C         -3.5158148830        1.3179282891       -0.7746750199
 C         -3.9766610812        2.6242672271       -1.3513756770
 C         -2.8429889107        3.6593497562       -1.3502815242
 C         -2.1205484870        3.7864949101       -0.0087262549
 H         -1.5770007452        2.8595573263        0.1926951456
 H         -1.3696906865        4.5721628600       -0.1197146146
 C         -3.0358971266        4.1152707296        1.1793327990
 H         -3.9828166666        4.5161561646        0.8159662325
 H         -2.5612674681        4.8952361639        1.7782770074
 C         -3.3091963546        2.9379248455        2.1172707261
 H         -2.3626079254        2.4704533669        2.4006403204
 H         -3.7685201646        3.3293652617        3.0287325620
 C         -4.2384006943        1.8484537283        1.5673434262
 H         -4.4999822613        1.1843567553        2.3961489494
 H         -5.1550771590        2.3030150079        1.1867750234
 H         -3.2592663444        4.6274948249       -1.6352908868
 H         -2.1064484725        3.3697301231       -2.1040766832
 H         -4.2985304101        2.4528336457       -2.3799887904
 H         -4.8208646031        2.9937429318       -0.7724467678
 O         -2.9443639132        0.5185732229       -1.7085541285
 C         -2.3633933721       -0.6943307705       -1.3684029458
 O         -1.8432298251       -1.2784570251       -2.3423981062
 H          0.1017983149       -1.8032020764       -1.3856451635
 C          0.5058219330       -1.8540073775       -0.3850170985
 C         -0.3306506139       -2.1790437363        0.6739461318
 C          0.2048018526       -2.2102804870        1.9561759768
 C          1.5406774648       -1.9178257814        2.1707458601
 C          2.3643473698       -1.5715997449        1.1140442503
 C          1.8354804208       -1.5330967939       -0.1689556917
 N          2.6580062370       -1.1115099273       -1.2448858823
 S          2.8845163351        0.5620008470       -1.2505866026
 O          1.7261779722        1.2538369019       -0.7282036217
 O          3.2815039990        0.9010546576       -2.6000746770
 C          4.2702126828        0.7820416212       -0.1555839117
 C          4.0988571117        1.4390308625        1.0467279692
 C          5.1891984965        1.5857320359        1.8903243844
 C          6.4234054261        1.0749787457        1.5182433466
 C          6.5789586541        0.4190503208        0.3058044329
 C          5.4933453626        0.2692579472       -0.5421923062
 H          5.5676058612       -0.2287306113       -1.4944704929
 H          7.5404354986        0.0238852982        0.0202237465
 H          7.2693200416        1.1892216941        2.1775454641
 H          5.0698082594        2.0950654553        2.8330509003
 H          3.1184914960        1.8136347989        1.2945733497
 H          2.2693718350       -1.3742007989       -2.1417118966
 H          3.4022188998       -1.3282301759        1.2734659787
 H          1.9416924834       -1.9476339109        3.1722030454
 H         -0.4419596065       -2.4423195835        2.7897171100
 C         -1.8031640290       -2.4127228779        0.4348819678
 H         -2.2718925959       -2.6230084109        1.4055764210
 C         -2.0465744795       -3.5937892833       -0.4815301409
 C         -1.9021728993       -4.9792407540        0.0709088178
 C         -3.2604636606       -4.4459216110       -0.2700228677
 H         -3.7696395121       -4.8383657344       -1.1373532550
 H         -3.9227243074       -4.1792575264        0.5406513773
 H         -1.6440025441       -5.0763328146        1.1144528998
 H         -1.4758374497       -5.7426633518       -0.5613839863
 H         -1.7347836352       -3.4225786732       -1.5033796031
 O         -3.1404656762       -0.6681295082        2.1643883554
