  62
        -98.93385136
 C          2.3121837893        0.6408900810        0.0639215992
 C          2.9389362897       -0.2242544287        0.9973599992
 C          3.9179655799       -1.1699792684        0.4537877192
 C          4.1322367797       -1.2141749485       -0.8734923508
 C          5.0802117499       -2.1386420883       -1.5879244108
 C          6.5319512998       -1.6411392279       -1.6172866710
 C          7.2760228700       -1.7250345575       -0.2839075211
 H          7.1845434603       -2.7340491775        0.1193579990
 H          8.3332889299       -1.5536878673       -0.4958335412
 C          6.8124795898       -0.7051987076        0.7656812389
 H          6.2448928695        0.0895471022        0.2760663588
 H          7.6840779997       -0.2368639873        1.2285543187
 C          5.9645098801       -1.2955297677        1.8925038890
 H          5.6619168099       -0.4813509277        2.5562368790
 H          6.5654474303       -1.9978614875        2.4745023190
 C          4.6955276602       -2.0151999781        1.4170464892
 H          4.9534646305       -2.9713648781        0.9621545093
 H          4.0596686404       -2.2007300982        2.2862846893
 H          7.0699754899       -2.2500815178       -2.3474336610
 H          6.5402521595       -0.6089494479       -1.9748561911
 H          5.0424329303       -3.1278546783       -1.1307934507
 H          4.7219576299       -2.2161683785       -2.6166112408
 O          3.4715059394       -0.4088514188       -1.7432080608
 C          2.5661947092        0.5530164310       -1.3064329508
 O          2.0773288589        1.2264288607       -2.2284434508
 O          2.6890098098       -0.2071958486        2.2341230592
 C          1.3244873791        1.6573544908        0.6239657892
 C         -0.0511983209        1.4157288104        0.0544133994
 C         -0.5588067212        1.9794060601       -1.1103833406
 C         -1.8319657512        1.6589382897       -1.5506255705
 C         -2.6275236908        0.7670633495       -0.8561708903
 C         -2.1306009305        0.1848958098        0.3020931497
 C         -0.8595466206        0.5172970902        0.7459500695
 H         -0.4779532004        0.0567058204        1.6490146896
 N         -2.9173377502       -0.7441333304        1.0060633199
 S         -4.4867529403       -0.3061284508        1.4126441500
 O         -4.6064668207        1.1229438092        1.5865680799
 O         -4.8221188299       -1.1240160708        2.5576943801
 C         -5.4592372803       -0.8348932112        0.0182685002
 C         -5.3941662899       -2.1624779312       -0.3569399397
 C         -6.1525682999       -2.5909470916       -1.4346174996
 C         -6.9611713602       -1.6907901919       -2.1127387796
 C         -7.0188237706       -0.3621304819       -1.7208767097
 C         -6.2617193306        0.0732153785       -0.6443091298
 H         -6.2703067609        1.0976375785       -0.3074665499
 H         -7.6484748808        0.3358371879       -2.2489385097
 H         -7.5499851202       -2.0270737622       -2.9515288895
 H         -6.1106153796       -3.6234632416       -1.7421717695
 H         -4.7567393097       -2.8303638510        0.1982302403
 H         -2.4464855100       -1.1551176802        1.7993727899
 H         -3.6169726208        0.5167150992       -1.2020195802
 H         -2.2059439714        2.1096411695       -2.4574344105
 H          0.0452818185        2.6447261302       -1.7000850108
 H          1.2617677593        1.3875104609        1.6903053492
 C          1.8975606287        3.0695288410        0.6177930390
 C          2.1279175383        3.9268387609       -0.5890322011
 C          1.0736722383        4.3039867707        0.4074129489
 H          1.2576231581        5.1539845308        1.0477349488
 H          0.0381624683        4.1777350604        0.1329261591
 H          3.0375572681        4.5107181412       -0.6129798913
 H          1.8461374983        3.5441740507       -1.5553495711
 H          2.6718181187        3.1446591113        1.3782753789
