  62
        -98.94285028
 C         -2.0965128895       -1.5113890394        0.1135680650
 C         -1.7162757880       -0.3725228875       -0.6406560079
 C         -2.7609482595        0.6504884100       -0.8215434624
 C         -3.9835224320        0.4553969073       -0.2976537620
 C         -5.1168396170        1.4365997091       -0.3664195571
 C         -5.1142168414        2.3714038871        0.8513901578
 C         -3.7518233689        2.9998730446        1.1449099528
 H         -3.8788832142        3.6623538699        2.0038533931
 H         -3.0536821219        2.2151362935        1.4455493040
 C         -3.1520704206        3.7896842590       -0.0265843380
 H         -3.9340550050        4.0338496775       -0.7466724475
 H         -2.7575669159        4.7336950996        0.3548706555
 C         -2.0009595365        3.0834809713       -0.7454573938
 H         -1.2585155852        2.7540713271       -0.0143305892
 H         -1.5193968651        3.8117797680       -1.4033131487
 C         -2.3926317073        1.8771463751       -1.6079101702
 H         -3.2000066727        2.1556391137       -2.2883799777
 H         -1.5210819418        1.5957796387       -2.2060894893
 H         -5.8521345380        3.1582022496        0.6838877988
 H         -5.4232437929        1.7978030977        1.7284613722
 H         -5.0355817847        2.0165666757       -1.2836703660
 H         -6.0546287056        0.8784404748       -0.3827008831
 O         -4.3139605120       -0.6545466206        0.4108678039
 C         -3.3783965495       -1.6452710335        0.6553875491
 O         -3.8026468287       -2.5837969532        1.3591955877
 H          1.2963833345       -2.4789147154       -0.8679927348
 C          1.3266034813       -2.0427149065        0.1180086685
 C          0.1870087373       -2.0413221309        0.9050179758
 C          0.2410958128       -1.4338601086        2.1561680066
 C          1.4106834995       -0.8544870928        2.6107048351
 C          2.5487918930       -0.8599220984        1.8233388785
 C          2.4984197928       -1.4471731363        0.5662467546
 N          3.6391773614       -1.4395228169       -0.2520703812
 S          4.5952752787       -0.0693345433       -0.2896422913
 O          5.2593038780       -0.1134193584       -1.5741511034
 O          5.4657260899       -0.0602367111        0.8613046664
 C          3.4865151093        1.3262742616       -0.2140691396
 C          3.6343400665        2.2594834698        0.7920996516
 C          2.7716664965        3.3426510101        0.8340193948
 C          1.7818061769        3.4732689684       -0.1276061833
 C          1.6497593971        2.5293261426       -1.1339999580
 C          2.5074737123        1.4433969914       -1.1798675463
 H          2.4150201703        0.6936154518       -1.9484066978
 H          0.8753307295        2.6237485471       -1.8772857424
 H          1.1079918367        4.3151041712       -0.0936018938
 H          2.8723248538        4.0787707384        1.6154517915
 H          4.4180937521        2.1189479574        1.5190029057
 H          3.4774483872       -1.7979439589       -1.1816060554
 H          3.4713984938       -0.4200127669        2.1653568238
 H          1.4386698533       -0.3920436798        3.5857250546
 H         -0.6517419850       -1.4171861726        2.7667731215
 C         -1.1187056053       -2.6305881484        0.4342306138
 H         -1.5721308880       -3.1679718626        1.2828004241
 C         -0.9449288482       -3.6534462607       -0.6788280369
 C         -2.1131384503       -4.0677504621       -1.5214357162
 C         -0.9867850890       -3.2918454491       -2.1319804150
 H         -0.3185220075       -3.8084145811       -2.8061522205
 H         -1.1538478222       -2.2583199818       -2.3902036430
 H         -2.2199678532       -5.1114763004       -1.7759376795
 H         -3.0526121715       -3.5617273149       -1.3524708886
 H         -0.2547735602       -4.4421766323       -0.3935420412
 O         -0.5786328227       -0.2027130411       -1.1473352608
