  62
        -98.94027757
 C         -1.1332461306       -1.6166706271       -0.3156309335
 C         -1.2015677495       -0.2088117979       -0.4410164694
 C         -2.3305746366        0.4644628618        0.2351637530
 C         -3.2407655987       -0.2771268747        0.8906372123
 C         -4.4844467629        0.1952724933        1.5937619468
 C         -5.6128070971        0.5713159381        0.6155882339
 C         -5.1644254952        1.3155344373       -0.6404920410
 H         -4.3971378493        0.7290355951       -1.1490662101
 H         -6.0237718414        1.3788823471       -1.3131952567
 C         -4.6486369296        2.7338662360       -0.4099794002
 H         -4.3837100182        3.1486865816       -1.3856452351
 H         -5.4550470615        3.3440769810        0.0035926683
 C         -3.4347675910        2.8594286413        0.5110244084
 H         -3.7201997654        2.7021277829        1.5478309356
 H         -3.0773873751        3.8915386833        0.4426035564
 C         -2.2507577835        1.9687197882        0.1447624723
 H         -1.9410806124        2.1887126537       -0.8829295863
 H         -1.3972190112        2.2456967751        0.7784583530
 H         -6.3510735112        1.1692040705        1.1522893746
 H         -6.0970700052       -0.3537630180        0.2941086331
 H         -4.2404382342        1.0250052971        2.2513927821
 H         -4.8271354155       -0.6322013379        2.2189898119
 O         -3.1616645493       -1.6368298191        0.9494696341
 C         -2.1069341318       -2.3279959172        0.3903055353
 O         -2.1516918511       -3.5627578120        0.5717226834
 O         -0.3771412816        0.4873923430       -1.0913736602
 C          0.0077492371       -2.4581487300       -0.8697695777
 C          1.1844278090       -2.3958342368        0.0746116753
 C          1.6639745275       -3.5358787637        0.7085587432
 C          2.7200995086       -3.4510766375        1.5990078654
 C          3.3043528284       -2.2303760260        1.8862309186
 C          2.8296117099       -1.0846934456        1.2572457429
 C          1.7922354599       -1.1778910291        0.3429915196
 H          1.4238027365       -0.2852016302       -0.1330564712
 N          3.3987060141        0.1717141915        1.5074400192
 S          2.4471541664        1.5499775243        1.4669488756
 O          3.2228083921        2.5337334097        2.1989879460
 O          1.1213714873        1.3044231627        1.9883877777
 C          2.3976253621        2.0459839998       -0.2417118593
 C          1.4347160063        2.9598650125       -0.6162776468
 C          1.3946839024        3.3940336640       -1.9307873149
 C          2.3179732437        2.9111757432       -2.8440452021
 C          3.2843215734        1.9992900216       -2.4500059739
 C          3.3302379107        1.5617283350       -1.1359567042
 H          4.0621729368        0.8439403917       -0.8042091346
 H          3.9993635276        1.6214365298       -3.1633905193
 H          2.2804168482        3.2441473858       -3.8695465800
 H          0.6394036996        4.0999670925       -2.2375556378
 H          0.7275082869        3.3023387127        0.1220214235
 H          4.0795157260        0.2036940013        2.2517627848
 H          4.1157655485       -2.1615736875        2.5947663550
 H          3.0836927403       -4.3431534205        2.0862985223
 H          1.1906733891       -4.4874922905        0.5151141184
 H         -0.3629056414       -3.4921922662       -0.8794684727
 C          0.4189452203       -2.0804721879       -2.2793050084
 C          1.1381918132       -3.0913219859       -3.1190212641
 C         -0.2772334886       -2.7187957772       -3.4417116735
 H         -0.4690146474       -2.1190095285       -4.3185225002
 H         -1.0562808556       -3.4357338325       -3.2252485788
 H          1.9220326607       -2.7488869516       -3.7765720499
 H          1.3186717255       -4.0641369059       -2.6871290420
 H          0.7054385595       -1.0422445424       -2.3795064399
