  62
        -98.93830662
 C          1.8726829681        0.7635464905       -0.2448006744
 C          2.4724297195        0.1393171276        0.8730393958
 C          3.5551174418       -0.8166111224        0.5877828414
 C          3.8871894610       -1.0727193184       -0.6893335743
 C          4.9221632416       -2.0366278715       -1.2138011140
 C          6.2774900431       -2.0834878983       -0.4947494240
 C          6.7483452763       -0.7449761985        0.0926989487
 H          7.7695193682       -0.5513345996       -0.2407598890
 H          6.1239711576        0.0681679758       -0.2813738340
 C          6.7434932015       -0.7299497613        1.6232587542
 H          7.1491111359       -1.6777347971        1.9839986752
 H          7.4107116471        0.0633525796        1.9687840103
 C          5.3810984439       -0.4896182607        2.2722987656
 H          5.4951737839       -0.6179868566        3.3514024756
 H          5.0683635902        0.5444334285        2.1038794523
 C          4.2454626192       -1.4043560282        1.7850707531
 H          3.4910613897       -1.4528629937        2.5752748289
 H          4.6063688216       -2.4111567667        1.5889997283
 H          6.2429520971       -2.8272520455        0.3001959380
 H          7.0079811720       -2.4382852535       -1.2238131979
 H          4.4832657016       -3.0388512687       -1.2158422117
 H          5.0714749853       -1.7505772237       -2.2577536261
 O          3.2563170001       -0.4746463734       -1.7394334927
 C          2.2442042341        0.4543768093       -1.5524093055
 O          1.7701064181        0.9164492537       -2.6065762322
 O          2.1083214710        0.3582850142        2.0603358341
 C          0.7630647317        1.7739234465       -0.0166275449
 C         -0.5195023973        1.2802779610       -0.6395932090
 C         -1.3160290728        2.0512034174       -1.4749853506
 C         -2.4764478106        1.5258268991       -2.0185932410
 C         -2.8730641322        0.2330218265       -1.7336399900
 C         -2.0943695986       -0.5397285612       -0.8802152415
 C         -0.9340595631       -0.0117397547       -0.3368726288
 H         -0.3266961166       -0.6168503839        0.3250060304
 N         -2.5002454506       -1.8474697064       -0.5652558289
 S         -4.1120449231       -2.0951944962       -0.1883706278
 O         -4.1232962687       -3.2435085314        0.6908175632
 O         -4.8797943764       -2.2269149840       -1.4016265599
 C         -4.6202431120       -0.6272112688        0.6898414115
 C         -5.6389613668        0.1575450728        0.1894094608
 C         -5.9954096236        1.3093015064        0.8726163735
 C         -5.3269539473        1.6565882649        2.0360518888
 C         -4.3076667392        0.8555982420        2.5283116212
 C         -3.9489413573       -0.2981998325        1.8508992775
 H         -3.1630999448       -0.9431525330        2.2109791360
 H         -3.7878349723        1.1265476893        3.4333271200
 H         -5.6007706740        2.5560832928        2.5644226437
 H         -6.7889295227        1.9327062776        0.4933974361
 H         -6.1290531180       -0.1478417619       -0.7206379982
 H         -1.8920029149       -2.3221162415        0.0850975484
 H         -3.7633457094       -0.1956597801       -2.1643518126
 H         -3.0785438556        2.1318318736       -2.6779794880
 H         -1.0233874840        3.0603648452       -1.7122958272
 H          0.6199653785        1.8058821741        1.0738283148
 C          1.1859727877        3.1473681621       -0.4921449001
 C          0.6018520900        4.3755660097        0.1375247634
 C          2.0257474621        3.9981869972        0.4113857629
 H          2.8134381622        4.5933951390       -0.0257433358
 H          2.2721974903        3.5965780058        1.3836152702
 H          0.4126026350        5.2351280898       -0.4874046179
 H         -0.1194240237        4.2364068582        0.9282675940
 H          1.4120485341        3.1699223788       -1.5522346746
