  62
        -98.94488890
 C         -1.9287912051        0.4455974203        0.6706439291
 C         -2.9743847769        1.2908264410        0.2271647692
 C         -4.3248313467        0.7215548324        0.2852655547
 C         -4.5033795782       -0.5242529654        0.7612844693
 C         -5.8219532810       -1.2347366270        0.9059715186
 C         -6.3041313765       -1.9234491071       -0.3781989159
 C         -6.8035003745       -0.9808511650       -1.4739683334
 H         -7.3078891683       -1.5971209530       -2.2209278123
 H         -7.5476143956       -0.3020721575       -1.0560838151
 C         -5.6970780665       -0.1727948052       -2.1662846299
 H         -4.7276934068       -0.6323401431       -1.9593996973
 H         -5.8432759571       -0.2081200660       -3.2482227254
 C         -5.6428938112        1.3011233080       -1.7641239331
 H         -6.5587102824        1.8023772237       -2.0849461486
 H         -4.8033156152        1.7681106651       -2.2852243752
 C         -5.4574946611        1.5385110216       -0.2595534869
 H         -5.2114280853        2.5920200631       -0.1060603770
 H         -6.3807903025        1.3135050390        0.2736284615
 H         -5.4914497631       -2.5399822527       -0.7694413021
 H         -7.1235811610       -2.5908218680       -0.1014400904
 H         -5.6799708368       -1.9986681254        1.6734748700
 H         -6.5812412262       -0.5324125904        1.2511584382
 O         -3.4734087081       -1.2978631959        1.1968310828
 C         -2.1617997058       -0.8459201356        1.1428376554
 O         -1.3198888360       -1.6722911256        1.5426984205
 O         -2.7867051738        2.4620214281       -0.1979278321
 C         -0.5014979061        0.9627251057        0.6209828305
 C          0.3236065793        0.0769559058       -0.2784595653
 C         -0.0977528041       -0.1052993526       -1.5944262830
 C          0.5971634666       -0.9344061390       -2.4516360574
 C          1.7365045496       -1.5915596170       -2.0192625960
 C          2.1700837345       -1.4124761736       -0.7120362757
 C          1.4683344885       -0.5761256562        0.1478948221
 H          1.8181900470       -0.4735275227        1.1607090508
 N          3.3132156275       -2.0813238057       -0.2459394155
 S          4.4624177470       -1.2756080227        0.6602805261
 O          5.6229027074       -2.1378202666        0.6196257679
 O          3.9479192308       -0.9607175280        1.9678022996
 C          4.7829582238        0.2166255600       -0.2619874038
 C          4.1430335297        1.3884102100        0.0861451310
 C          4.3527551107        2.5196539250       -0.6869850769
 C          5.1923782450        2.4597156405       -1.7882475433
 C          5.8316198910        1.2751681874       -2.1222980768
 C          5.6229707368        0.1402414273       -1.3561962207
 H          6.1087024376       -0.7969198475       -1.5748693419
 H          6.4878910311        1.2330899457       -2.9766022041
 H          5.3511976538        3.3424813138       -2.3873229159
 H          3.8581875696        3.4419751983       -0.4268629816
 H          3.5012601490        1.3977247468        0.9513115004
 H          3.7529694835       -2.6792223795       -0.9302109938
 H          2.2771234726       -2.2481003230       -2.6839872273
 H          0.2527382231       -1.0711202050       -3.4656199634
 H         -0.9895086470        0.4064812940       -1.9299516821
 H         -0.5713498826        1.9573695153        0.1561874856
 C          0.0571972944        1.1183743032        2.0185570167
 C          1.1072355904        2.1501012205        2.2981980543
 C         -0.2890322132        2.3447270206        2.8067272441
 H         -0.4751659145        2.2410154326        3.8651835564
 H         -0.9100034163        3.0854256331        2.3243260992
 H          1.8863587891        1.9125264389        3.0077807803
 H          1.4278363535        2.7688439965        1.4734853046
 H          0.1058549477        0.1801062891        2.5603202941
