  62
        -98.94130402
 C         -2.4935291701       -1.3499294726       -0.0043968426
 C         -3.1949087459       -0.6487665481        1.0117562792
 C         -4.0168126248        0.4843629972        0.5763535726
 C         -4.0786316661        0.7970184398       -0.7302501848
 C         -4.8907311835        1.9070255302       -1.3400863184
 C         -4.2053075850        3.2795141812       -1.2937465287
 C         -4.1469859249        3.9309973075        0.0884967791
 H         -3.8469154271        4.9701624038       -0.0601675962
 H         -5.1450132441        3.9391739689        0.5277670883
 C         -3.1601633062        3.2686776489        1.0604425282
 H         -2.4563838132        2.6459159369        0.5017999251
 H         -2.5682865352        4.0390825286        1.5601953522
 C         -3.8154617840        2.4219655486        2.1519619495
 H         -3.0227052292        1.9693730914        2.7531364465
 H         -4.4099004661        3.0644803463        2.8052872360
 C         -4.7143954110        1.2955277539        1.6258669916
 H         -5.6431447401        1.7081048084        1.2323786704
 H         -4.9501610340        0.6284572071        2.4585491511
 H         -3.1921021336        3.1792458103       -1.6909781273
 H         -4.7595880029        3.9430885293       -1.9615472207
 H         -5.8599191732        1.9664552830       -0.8440457914
 H         -5.0503197121        1.6371076035       -2.3862714738
 O         -3.4000417987        0.0984995400       -1.6767100361
 C         -2.5739005039       -0.9695852097       -1.3439774881
 O         -1.9958233623       -1.4703866046       -2.3281128365
 O         -3.1441862489       -0.9683097028        2.2291301100
 C         -1.6354821980       -2.5194074194        0.4492952893
 C         -0.2158862280       -2.0683994515        0.6801024942
 C          0.4089868349       -2.2515554175        1.9074267059
 C          1.7010763216       -1.7989850338        2.1139267347
 C          2.3943287932       -1.1572735591        1.1033671599
 C          1.7762019073       -0.9647048785       -0.1254232701
 C          0.4833091204       -1.4208163361       -0.3301299847
 H          0.0053608917       -1.2656065483       -1.2868306731
 N          2.4721516553       -0.3054309207       -1.1598944158
 S          2.9613123130        1.2709194170       -0.8278893140
 O          2.0970442165        1.8938187110        0.1493226189
 O          3.0566680644        1.9251100744       -2.1147025801
 C          4.5981019465        1.0659731860       -0.1578847381
 C          5.5523939361        0.4601813906       -0.9518615395
 C          6.8314057622        0.2885518307       -0.4471784502
 C          7.1331333195        0.7251459360        0.8344352661
 C          6.1647894000        1.3348333221        1.6173835725
 C          4.8828393195        1.5088510233        1.1188509496
 H          4.0955752441        1.9721922672        1.6919772886
 H          6.4013277260        1.6739785751        2.6131088597
 H          8.1291587735        0.5897276302        1.2253500841
 H          7.5872157147       -0.1845084758       -1.0531483355
 H          5.2761799771        0.1404575293       -1.9427761656
 H          1.9706115944       -0.3249983448       -2.0376211109
 H          3.3997215448       -0.8009648658        1.2579905444
 H          2.1729559843       -1.9457833033        3.0733408936
 H         -0.1322020903       -2.7350724195        2.7074601404
 H         -2.0541037661       -2.8029993116        1.4277890963
 C         -1.7451810814       -3.7346992501       -0.4616855942
 C         -0.6104201433       -4.2727665511       -1.2762296696
 C         -1.0813879440       -5.0214547757       -0.0681386239
 H         -1.6202784808       -5.9464618283       -0.2051233381
 H         -0.4481964883       -5.0016818435        0.8061144100
 H         -0.8426396050       -4.6620682095       -2.2558615706
 H          0.3430319112       -3.7713362267       -1.2245812422
 H         -2.7307629130       -3.8138361604       -0.9093620607
