  62
        -98.94378749
 C         -2.6180318586       -0.0445373632       -0.4149721244
 C         -2.2424840674       -0.5953762587        0.8347289594
 C         -1.8732699300       -2.0160353686        0.8196702527
 C         -1.8906849590       -2.7005878824       -0.3382962115
 C         -1.5958082356       -4.1667917251       -0.5079300053
 C         -0.1028755850       -4.5025143089       -0.6194658887
 C          0.6824530177       -4.4027121066        0.6884898612
 H          0.1625872894       -4.9576576780        1.4702887427
 H          1.6447206258       -4.8913817516        0.5238040245
 C          0.9377178597       -2.9637451460        1.1563041556
 H          0.7996978016       -2.2719503860        0.3218021144
 H          1.9793890533       -2.8570944075        1.4705186473
 C          0.0733515241       -2.4985432197        2.3283496679
 H          0.2973917793       -1.4418832853        2.4995328119
 H          0.3453507580       -3.0555597415        3.2286381768
 C         -1.4379003836       -2.6420875129        2.1096551636
 H         -1.7230453924       -3.6942633363        2.1376696098
 H         -1.9495366684       -2.1165475425        2.9201186995
 H          0.3500256546       -3.8405458737       -1.3616319753
 H         -0.0260818927       -5.5272268956       -0.9908561297
 H         -2.0884456543       -4.4748512469       -1.4328689772
 H         -2.0333964246       -4.7235164901        0.3215885095
 O         -2.2278430922       -2.1251232648       -1.5241551418
 C         -2.5656773910       -0.7842210817       -1.5948508975
 O         -2.8063286236       -0.3740333825       -2.7509086244
 O         -2.2382466764        0.0577618278        1.9104699395
 C         -2.9847832614        1.4269492461       -0.5164071126
 C         -1.7920376603        2.2469880105       -0.0880873454
 C         -1.8439712591        3.2876184072        0.8296284350
 C         -0.6863386852        3.9406065612        1.2196488253
 C          0.5459137375        3.5686560261        0.7112024220
 C          0.6007576135        2.5517296688       -0.2288762620
 C         -0.5576367741        1.9120255219       -0.6303660164
 H         -0.4937648178        1.1020086678       -1.3480058956
 N          1.8715960502        2.1038598945       -0.7174552705
 S          2.1645293165        0.5175007464       -0.1999155002
 O          1.6278916286       -0.4322267860       -1.1559066022
 O          1.7199721306        0.4075543590        1.1645604993
 C          3.9463725648        0.4734188743       -0.2531178957
 C          4.6395292830        1.1283441661        0.7466598428
 C          6.0241659250        1.1409480668        0.7055048173
 C          6.6898432787        0.5032485494       -0.3312056510
 C          5.9807839165       -0.1499848508       -1.3273786157
 C          4.5948196837       -0.1650421217       -1.2915655703
 H          4.0027397562       -0.6659518894       -2.0408074984
 H          6.5000715392       -0.6472484049       -2.1309165541
 H          7.7678905198        0.5141156531       -0.3619502429
 H          6.5785590072        1.6468521074        1.4794964607
 H          4.0767852005        1.6023035972        1.5339095485
 H          1.9027081883        2.1038038150       -1.7292313063
 H          1.4567476275        4.0463251201        1.0326104017
 H         -0.7446646471        4.7373950829        1.9453998509
 H         -2.7911598150        3.5736760399        1.2574584550
 H         -3.1700816591        1.6212861957       -1.5834176780
 C         -4.2456492704        1.7272555793        0.2647668296
 C         -5.1279880375        2.8677625644       -0.1431608592
 C         -5.5739209722        1.4558603070       -0.3728774708
 H         -6.3672891497        1.0567420979        0.2407368832
 H         -5.5692252056        1.0729936838       -1.3833159023
 H         -5.6209920892        3.4397298306        0.6281223551
 H         -4.8280261141        3.4489097302       -1.0020203646
 H         -4.1421767472        1.5067157939        1.3206501323
