  62
        -98.94473444
 C         -2.4333936040       -1.1508333836       -0.0612636558
 C         -3.1298700826       -0.4008070783        0.9238642855
 C         -3.7412799293        0.8573746988        0.4816102755
 C         -3.6241100644        1.2241528508       -0.8071293562
 C         -4.1433228443        2.5072005017       -1.3866101771
 C         -3.0791133178        3.6120311172       -1.3288785856
 C         -2.4189998907        3.7659261992        0.0416150973
 H         -1.8278917573        2.8714563405        0.2550375319
 H         -1.7150525988        4.5981357732       -0.0303884943
 C         -3.3989094535        4.0208244953        1.1957679384
 H         -2.9987523116        4.8213047299        1.8213926521
 H         -4.3547603340        4.3655267128        0.7996491236
 C         -3.6323985907        2.8160773966        2.1093069010
 H         -2.6696626670        2.4064856155        2.4258296568
 H         -4.1517288628        3.1651477389        3.0056624426
 C         -4.4671819317        1.6768971083        1.5108538739
 H         -4.7174872121        0.9864780814        2.3214380120
 H         -5.3957819454        2.0772754517        1.0995070933
 H         -2.2973458634        3.3806562045       -2.0567703196
 H         -3.5453514953        4.5556244541       -1.6186585285
 H         -4.4134180400        2.3300293017       -2.4290551257
 H         -5.0312790389        2.8145595964       -0.8375859334
 O         -2.9706502020        0.4735946493       -1.7277098069
 C         -2.3386014548       -0.7117981930       -1.3816407330
 O         -1.7559984168       -1.2553472381       -2.3434102793
 O         -3.2373694257       -0.7745138290        2.1220585737
 C         -1.7531643853       -2.4254751889        0.4161095451
 C         -0.2960272378       -2.1329585704        0.6825163370
 C          0.2060181528       -2.1113888578        1.9785143731
 C          1.5249040820       -1.7669405825        2.2188850693
 C          2.3645449191       -1.4224677001        1.1743468444
 C          1.8689764426       -1.4353275478       -0.1224463410
 C          0.5564756326       -1.8066822122       -0.3632237815
 H          0.1765252221       -1.7939064380       -1.3743035896
 N          2.7067903488       -1.0249199194       -1.1886570720
 S          2.9797519497        0.6407517523       -1.2012220344
 O          1.8558280939        1.3641513264       -0.6477651452
 O          3.3493817346        0.9677848400       -2.5613603539
 C          4.4022654643        0.8263972431       -0.1472365542
 C          5.5916848623        0.2532771077       -0.5536865080
 C          6.7062061980        0.3779365890        0.2601688739
 C          6.6128335463        1.0700971522        1.4587259511
 C          5.4121949661        1.6423579201        1.8505621192
 C          4.2930561369        1.5207037638        1.0413674420
 H          3.3366626802        1.9427329712        1.3059207383
 H          5.3413323619        2.1803577507        2.7821885360
 H          7.4811801020        1.1647292102        2.0914216664
 H          7.6417474220       -0.0648662353       -0.0411511794
 H          5.6186107181       -0.2709423413       -1.4942973927
 H          2.3275190209       -1.2869730318       -2.0894868946
 H          3.3891238909       -1.1398654086        1.3538477708
 H          1.9000578732       -1.7559092093        3.2307513215
 H         -0.4543640417       -2.3437837242        2.8012783044
 H         -2.2293678541       -2.6619838477        1.3770475285
 C         -1.9365303353       -3.6071178930       -0.5135379485
 C         -1.7487870200       -4.9911073800        0.0293497081
 C         -3.1208028523       -4.5057200564       -0.3278856146
 H         -3.6018662723       -4.9092901094       -1.2061076226
 H         -3.8046852845       -4.2709980565        0.4746788319
 H         -1.2849949524       -5.7325884424       -0.6026963608
 H         -1.5028376343       -5.0877763702        1.0758811022
 H         -1.6167898806       -3.4154224938       -1.5292798296
