  62
        -98.94935683
 C          1.5248032172        1.4095936748       -0.2845204353
 C          2.6895230336        0.8695568341        0.3069397025
 C          3.1325156503       -0.4258184811       -0.2203265453
 C          2.4286800305       -1.0240197055       -1.1980875255
 C          2.7373674948       -2.3563486483       -1.8252534994
 C          2.2158613532       -3.5516737123       -1.0152058694
 C          3.0134150592       -3.8765530125        0.2484250658
 H          2.7004001682       -4.8698042219        0.5768287031
 H          4.0759509582       -3.9312358188        0.0071707587
 C          2.7924349725       -2.8898327104        1.4034213922
 H          1.8674842661       -2.3319175440        1.2359804914
 H          2.6526846320       -3.4472122676        2.3332900681
 C          3.9437078660       -1.9106277571        1.6360531175
 H          4.8276942199       -2.4598757002        1.9698072769
 H          3.6505446794       -1.2262610037        2.4365245433
 C          4.3286585386       -1.0713776151        0.4113762715
 H          4.9983834228       -0.2736048903        0.7433602564
 H          4.8547372266       -1.6893410391       -0.3162936332
 H          2.2373650581       -4.4262938857       -1.6699097830
 H          1.1747276993       -3.3657298352       -0.7376344978
 H          3.8133072048       -2.4563240537       -1.9720178175
 H          2.2510044158       -2.3617095624       -2.8032284607
 O          1.3264887688       -0.4598858284       -1.7585407700
 C          0.8345766004        0.7562901711       -1.3047366354
 O         -0.1972623536        1.1422321699       -1.8853213300
 O          3.3264966887        1.4412861186        1.2339686874
 C          0.9436688579        2.7026967985        0.2537749747
 C         -0.4904377180        2.4848069877        0.6729848904
 C         -1.4850694478        3.4403736506        0.5048672713
 C         -2.7874025615        3.1738332664        0.8909903737
 C         -3.1300863196        1.9487020314        1.4330860991
 C         -2.1397880148        0.9910885182        1.6166791282
 C         -0.8322145116        1.2741896165        1.2617683418
 H         -0.0765314460        0.5187463070        1.4187684363
 N         -2.4339043233       -0.2748644418        2.1617613266
 S         -1.9992731939       -1.6328434549        1.2858719475
 O         -2.6769234542       -2.7219654485        1.9599727037
 O         -0.5661961087       -1.7416392310        1.1977313815
 C         -2.7142194093       -1.4192134915       -0.3337103435
 C         -1.9085043144       -1.4579763252       -1.4506156315
 C         -2.4833548872       -1.2866179349       -2.6999438081
 C         -3.8486099615       -1.0797942507       -2.8085675894
 C         -4.6492556405       -1.0538170274       -1.6761606449
 C         -4.0794220565       -1.2257088637       -0.4262625750
 H         -4.6762766486       -1.2279471646        0.4715292171
 H         -5.7124724457       -0.8985646474       -1.7650671666
 H         -4.2913188399       -0.9407300604       -3.7822857327
 H         -1.8552702279       -1.3031888616       -3.5759504141
 H         -0.8483033479       -1.6078444230       -1.3292814059
 H         -3.3852193987       -0.3696069728        2.4889020548
 H         -4.1498910361        1.7342771296        1.7144207439
 H         -3.5493354091        3.9254881543        0.7520643036
 H         -1.2411317054        4.3933189495        0.0642966554
 H          1.5371704836        2.9455356884        1.1484838630
 C          1.1055933011        3.8213653747       -0.7557124059
 C          1.3190710373        5.2335900567       -0.3006040042
 C          2.4505012735        4.4637477013       -0.9103603377
 H          2.7846910892        4.7300903280       -1.9017997382
 H          3.2412337188        4.1132304320       -0.2630658339
 H          0.8780744828        6.0331209134       -0.8766746468
 H          1.3499608917        5.4183886529        0.7625968151
 H          0.5237754355        3.6528500540       -1.6551108294
