  62
        -98.93617394
 C         -2.1331620771       -1.3673495078        0.3260393792
 C         -1.7868172867       -0.3609449082       -0.6068870016
 C         -2.6285407190        0.8533334791       -0.6038828898
 C         -3.6303737630        0.9704703052        0.2864219149
 C         -4.6717701047        2.0531924404        0.4778484150
 C         -4.4853236430        3.4377959273       -0.1379741080
 C         -3.3167045707        4.2402755689        0.4316247625
 H         -3.2383960813        5.1736950742       -0.1300679023
 H         -3.5403929209        4.4957409043        1.4705618582
 C         -1.9634137701        3.5337574604        0.4085579299
 H         -1.2180054703        4.2234531146        0.8148398433
 H         -1.9917097923        2.6671871069        1.0733359422
 C         -1.4837971458        3.0894310418       -0.9723294882
 H         -1.5168692090        3.9366711715       -1.6597578457
 H         -0.4389698603        2.7855715799       -0.8708491184
 C         -2.2570051410        1.9146002748       -1.5994878669
 H         -1.6048628803        1.4304491149       -2.3320023308
 H         -3.1405379852        2.2621080598       -2.1301093198
 H         -4.4021508204        3.3640183774       -1.2182374527
 H         -5.4019720628        3.9957043986        0.0717816732
 H         -4.7941189727        2.1574503680        1.5607193602
 H         -5.6110531947        1.6322147672        0.1017428115
 O         -3.8914446405       -0.0067194262        1.2042346322
 C         -3.1575373917       -1.1790619125        1.2548798293
 O         -3.5009439492       -1.9573294833        2.1673553899
 O         -0.8302986952       -0.4546467426       -1.4160006013
 C         -1.3672606439       -2.6754512438        0.4183717973
 C          0.1218965038       -2.4298756051        0.3587514721
 C          0.9887049665       -3.1358383948       -0.4652686208
 C          2.3489262674       -2.8781780337       -0.4400724999
 C          2.8734239637       -1.9043131635        0.3885270338
 C          2.0112852005       -1.1734455942        1.1970206780
 C          0.6541038323       -1.4534525928        1.1922164985
 H         -0.0116919819       -0.8882855827        1.8340518620
 N          2.5218969968       -0.1474092460        2.0076229280
 S          3.7390780942        0.8264412224        1.4021405345
 O          5.0166227189        0.2016859096        1.6464136191
 O          3.5424359780        2.1099053274        2.0418088912
 C          3.4783457411        0.9615751269       -0.3589912046
 C          2.2094850248        1.2170866830       -0.8377257065
 C          2.0158661827        1.3151320337       -2.2054940075
 C          3.0910987481        1.1694589274       -3.0678667776
 C          4.3623122335        0.9250020762       -2.5719949487
 C          4.5595832365        0.8151219676       -1.2050895432
 H          5.5270382776        0.6092017727       -0.7762615457
 H          5.1972734054        0.8122967125       -3.2446951080
 H          2.9336212318        1.2433506910       -4.1322843800
 H          1.0210636549        1.4808488851       -2.5858731108
 H          1.3813521225        1.3152218274       -0.1535547317
 H          1.8167416951        0.3976715970        2.4805483289
 H          3.9308141694       -1.6959043596        0.4219568750
 H          3.0103416170       -3.4403722999       -1.0811963853
 H          0.6012920175       -3.8804210005       -1.1402404629
 H         -1.5945547776       -3.0632558614        1.4260554032
 C         -1.8406884766       -3.7349198560       -0.5676237556
 C         -3.2089847239       -3.6773464671       -1.1771762594
 C         -1.9994104894       -3.4421748419       -2.0284083109
 H         -1.7186296729       -4.2054262214       -2.7392537823
 H         -1.7886588640       -2.4372309858       -2.3572288204
 H         -3.7533944450       -4.6024237217       -1.2953942045
 H         -3.8364830649       -2.8331795641       -0.9296946082
 H         -1.4819033313       -4.7247070653       -0.3031578745
