  62
        -98.94122323
 C          1.5333479360        1.6199987912       -0.2188136234
 C          2.6741119839        1.2632519572        0.5439155439
 C          3.4799170197        0.1397095129        0.0432375991
 C          3.1070577327       -0.4911293348       -1.0855300773
 C          3.7685267655       -1.6305135620       -1.8296018592
 C          4.6579476152       -2.6262219438       -1.0857868620
 C          3.9728386885       -3.3981135016        0.0393003553
 H          4.7148949261       -4.0664345011        0.4823864143
 H          3.1815045926       -4.0183260429       -0.3890590185
 C          3.3575258391       -2.5435358702        1.1467536619
 H          3.0243200561       -3.2167910255        1.9411263997
 H          2.4707713218       -2.0287787267        0.7714145081
 C          4.2948379778       -1.5127643130        1.7770349503
 H          5.2241669498       -1.9968628086        2.0824769380
 H          3.8023053861       -1.1364371928        2.6771106220
 C          4.6358181209       -0.2932982768        0.8959003960
 H          5.5124937710       -0.4777441349        0.2784532806
 H          4.8688028724        0.5472422840        1.5553065954
 H          5.5468466699       -2.1314421284       -0.7052115145
 H          4.9940341632       -3.3535047661       -1.8300808696
 H          4.3615131214       -1.1737217987       -2.6299927371
 H          2.9557333282       -2.1754805277       -2.3191743310
 O          2.0110066538       -0.1023093482       -1.7961597398
 C          1.1897720753        0.9361772526       -1.3831440635
 O          0.2174711031        1.1314085431       -2.1380315969
 O          3.0086907605        1.8629897596        1.5992193598
 C          0.6406039434        2.7278147305        0.3187357563
 C         -0.6090938107        2.0625264208        0.8389946481
 C         -0.6364723249        1.5640811366        2.1385690477
 C         -1.7253685806        0.8462825234        2.5980913817
 C         -2.7977662704        0.5851058929        1.7625994014
 C         -2.7714744635        1.0677761922        0.4611310015
 C         -1.6980325228        1.8249891275        0.0142468257
 H         -1.6898744297        2.1830801019       -1.0027756252
 N         -3.8226483533        0.7438260520       -0.4180989608
 S         -4.2411136062       -0.8773927463       -0.4770258259
 O         -4.6976869018       -1.1131953491       -1.8292125267
 O         -5.2058706186       -1.1546139721        0.5595693872
 C         -2.7448963157       -1.7989954024       -0.1503383557
 C         -1.6254757844       -1.5586840774       -0.9220694398
 C         -0.4701543372       -2.2793516796       -0.6655245976
 C         -0.4501374548       -3.2232789462        0.3490055622
 C         -1.5836706084       -3.4551389257        1.1123849699
 C         -2.7417786741       -2.7371373582        0.8625660615
 H         -3.6435173176       -2.8809895277        1.4354369653
 H         -1.5664520067       -4.1895015636        1.9014191855
 H          0.4544506279       -3.7774695916        0.5452799801
 H          0.4095754145       -2.0854640136       -1.2591029110
 H         -1.6438053983       -0.8125832063       -1.7013873492
 H         -3.6799144017        1.1031485708       -1.3515425411
 H         -3.6462695201        0.0075605041        2.0926137156
 H         -1.7349013746        0.4728966293        3.6105873351
 H          0.2178869313        1.7307595429        2.7790965737
 H          1.1852114727        3.1547895567        1.1707769595
 C          0.3815211668        3.8229963978       -0.6932446832
 C         -0.2147385712        5.1170442655       -0.2283095111
 C          1.2193672774        5.0645322407       -0.6591695193
 H          1.4945833900        5.5253035850       -1.5960996972
 H          1.9841078454        5.1318457117        0.1006246395
 H         -0.9267506146        5.6170487939       -0.8669827864
 H         -0.4242977014        5.2171072519        0.8259512517
 H          0.0913402783        3.4542723517       -1.6690868841
