  62
        -98.92898808
 C         -2.1851158395       -0.3905611503        0.2914877396
 C         -3.4170959495       -0.7646191812        0.8809481090
 C         -4.6443990795       -0.2098820402        0.2811114798
 C         -4.5325505294        0.6564384415       -0.7414029587
 C         -5.6240453494        1.3480099028       -1.5186159276
 C         -6.7886059194        1.9313046515       -0.7033227567
 C         -8.1008819494        1.1656064318       -0.8817718780
 H         -8.9309012894        1.8377271114       -0.6528816969
 H         -8.1948477294        0.8777528635       -1.9309188485
 C         -8.2559321695       -0.0741469196       -0.0024735200
 H         -9.1567259995       -0.5996088391       -0.3282156009
 H         -8.4166861595        0.2345592287        1.0327211405
 C         -7.0795305995       -1.0517707996       -0.0360088416
 H         -7.4501803295       -2.0312513901        0.2737377768
 H         -6.7026545995       -1.1619219480       -1.0522819318
 C         -5.9325929295       -0.6660820912        0.9102804291
 H         -6.2712894795        0.0986358777        1.6151805303
 H         -5.6512794896       -1.5306793422        1.5195610177
 H         -6.5168382094        1.9782222297        0.3499954534
 H         -6.9493151894        2.9564205020       -1.0409895650
 H         -6.0085131894        0.6517556740       -2.2682153688
 H         -5.1176317994        2.1458372337       -2.0665480263
 O         -3.3219080194        1.0252730823       -1.2485747981
 C         -2.1248721794        0.5223205315       -0.7611220389
 O         -1.1184078594        0.9711302224       -1.3396465481
 O         -3.4921163896       -1.5357099128        1.8755846277
 C         -0.9158497495       -0.9710661713        0.8863151587
 C          0.1193685505        0.1057472184        1.0907743705
 C         -0.1781942895        1.1667619270        1.9432894922
 C          0.7410215705        2.1719322766        2.1690898139
 C          1.9873667605        2.1301049276        1.5684532439
 C          2.2922757705        1.0791796889        0.7131227621
 C          1.3597317605        0.0786166694        0.4757540405
 H          1.6194214605       -0.7115400895       -0.2085642708
 N          3.5386196405        1.0133234500        0.0697249121
 S          4.2405065605       -0.5069396997       -0.1413137204
 O          3.7558281905       -1.0881895977       -1.3678009314
 O          4.0642901105       -1.3016779017        1.0538154783
 C          5.9552407105       -0.0523337894       -0.3305785896
 C          6.7908696805       -0.0896532713        0.7698983404
 C          8.1147742605        0.2923877890        0.6197615510
 C          8.5776401706        0.7055497210       -0.6205037583
 C          7.7273283306        0.7371403428       -1.7159436383
 C          6.4026332806        0.3558090426       -1.5730757289
 H          5.7074677806        0.3553201039       -2.3965462889
 H          8.0912616006        1.0561616544       -2.6793306877
 H          9.6083734906        1.0018109611       -0.7349995078
 H          8.7791801305        0.2653317676        1.4683754810
 H          6.3893934705       -0.4270190028        1.7119846098
 H          4.2014981805        1.6912909494        0.4196658632
 H          2.7107246205        2.9105470372        1.7502097751
 H          0.4916274105        2.9905452255        2.8276287952
 H         -1.1487373695        1.1940078662        2.4208078422
 H         -1.2218821696       -1.3339882229        1.8827150781
 C         -0.3741347595       -2.1788180001        0.1366435667
 C         -1.2815995995       -3.0929263188       -0.6290885548
 C         -0.3013549295       -2.2268267276       -1.3589904833
 H          0.5646699105       -2.6882284169       -1.8120655241
 H         -0.6702656595       -1.3719576667       -1.9039977319
 H         -1.0971732296       -4.1556400689       -0.5823184265
 H         -2.3285176195       -2.8309541387       -0.6791640744
 H          0.4436534904       -2.6524081709        0.6737004460
