  62
        -98.92943449
 C         -1.9808068666       -0.6680843314        0.0718556454
 C         -2.6602392369        0.2299557933        0.9320229331
 C         -3.9219029041        0.8100261942        0.4428579717
 C         -4.3547669482        0.4923761032       -0.7912722378
 C         -5.5663007957        0.9522889250       -1.5751337814
 C         -6.7025736147        1.7041767345       -0.8872885831
 C         -7.5140363577        0.8684705822        0.1025059105
 H         -8.0939914868        0.1322783161       -0.4597964424
 H         -8.2196774137        1.5293497886        0.6106227582
 C         -6.7005018468        0.1105795103        1.1485694482
 H         -6.0531251037       -0.6161687745        0.6536615608
 H         -7.4000520246       -0.4532525045        1.7717037944
 C         -5.8527139754        0.9807729846        2.0740888370
 H         -5.4517112693        0.3335335490        2.8588624231
 H         -6.4834443377        1.7330048384        2.5519136685
 C         -4.6623153705        1.6912405277        1.4076072027
 H         -3.9464850801        1.9576374681        2.1908275563
 H         -4.9731938718        2.6145009700        0.9243358480
 H         -7.3833568754        2.0307348362       -1.6781886870
 H         -6.3238771595        2.6028254834       -0.4091489558
 H         -5.9696375083        0.0544557610       -2.0543068351
 H         -5.1737367568        1.5805884227       -2.3824065825
 O         -3.6472857466       -0.3449960618       -1.6012401192
 C         -2.4614905242       -0.9504722287       -1.2068904789
 O         -1.9695262081       -1.6864656236       -2.0779619216
 O         -2.2249431443        0.5442813545        2.0740757671
 C         -0.6823847493       -1.2721850155        0.5929337971
 C          0.4735924795       -0.8118448294       -0.2594570449
 C          0.9172235992       -1.4317014267       -1.4220537948
 C          1.9652904580       -0.8951760106       -2.1513023939
 C          2.5958803223        0.2670720907       -1.7488297101
 C          2.1585677374        0.9020142797       -0.5936940578
 C          1.1155473372        0.3572925503        0.1398859566
 H          0.7759898246        0.8638389657        1.0343414202
 N          2.7939963367        2.0823794678       -0.1686378858
 S          4.4682071258        2.0766671601       -0.1272568607
 O          4.8276844413        3.0495364327        0.8802908045
 O          4.9866933184        2.3195599437       -1.4502536966
 C          4.9031211340        0.4295387434        0.4029969529
 C          4.4813161393        0.0197472182        1.6525820537
 C          4.7621953024       -1.2723675578        2.0647627329
 C          5.4557603015       -2.1292179922        1.2235200919
 C          5.8776891433       -1.7009590898       -0.0253010517
 C          5.5973246283       -0.4098432704       -0.4437939917
 H          5.9031606760       -0.0376967358       -1.4079302060
 H          6.4185924211       -2.3689176800       -0.6760431236
 H          5.6680151112       -3.1365922084        1.5450410714
 H          4.4347535662       -1.6074728113        3.0358159764
 H          3.9492665220        0.7127930933        2.2845876427
 H          2.4092609342        2.4702793524        0.6801645727
 H          3.4054164716        0.6994983276       -2.3141204449
 H          2.2903005238       -1.3908519720       -3.0534340037
 H          0.4230055476       -2.3133735249       -1.7879195376
 H         -0.5530024989       -0.7815035608        1.5701644184
 C         -0.8146019487       -2.7545670800        0.9204207485
 C         -0.9571437988       -3.8737982631       -0.0653591433
 C          0.2979529996       -3.7438277475        0.7430284037
 H          0.4734974528       -4.4609302811        1.5309449008
 H          1.1931354992       -3.4080570269        0.2436296152
 H         -1.6471186657       -4.6670202477        0.1873352233
 H         -0.9494679261       -3.6417867687       -1.1167172648
 H         -1.4111029262       -2.8719634916        1.8222715025
