  62
        -98.93858054
 C          2.4325650999        1.0905450898       -0.5054929213
 C          3.2086435801        0.4275169399        0.4807663685
 C          3.6298706399       -0.9418834002        0.1747825086
 C          3.2802400396       -1.4939677604       -1.0007509312
 C          3.6318095893       -2.8806910004       -1.4677118411
 C          2.6799198494       -3.9674087603       -0.9493414907
 C          2.8318001498       -4.3097118901        0.5334528493
 H          2.2731712997       -5.2313626000        0.7077023996
 H          3.8800647198       -4.5167257201        0.7515156191
 C          2.3083818601       -3.2281677099        1.4892626893
 H          1.6498318200       -2.5465563900        0.9441599594
 H          1.7042281203       -3.6946501498        2.2708032795
 C          3.3999981203       -2.4155846499        2.1864730389
 H          2.9168519005       -1.6527052198        2.8023547689
 H          3.9770757405       -3.0679135999        2.8457933188
 C          4.3686864901       -1.7065353301        1.2312855285
 H          5.0450842800       -2.4286559002        0.7745798085
 H          4.9564592203       -0.9892919401        1.8092871083
 H          1.6520427894       -3.6528644903       -1.1478186605
 H          2.8699615892       -4.8722156204       -1.5316312206
 H          4.6546614294       -3.1184883305       -1.1737774313
 H          3.5762301690       -2.8649552906       -2.5583282211
 O          2.5621975694       -0.8196904204       -1.9353436411
 C          2.0872312395        0.4708066296       -1.7074360212
 O          1.4190200193        0.9202577895       -2.6563221711
 O          3.5389371804        0.9685629400        1.5706460084
 C          1.9392196801        2.4744262999       -0.1222604114
 C          0.7646907003        2.3580338301        0.8181055389
 C          0.6492851407        3.1899777703        1.9257120488
 C         -0.4433574691        3.0894562805        2.7684841391
 C         -1.4408336892        2.1649288405        2.5192042595
 C         -1.3256703496        1.3148199003        1.4239424196
 C         -0.2260607698        1.4154403101        0.5846265293
 H         -0.1473105001        0.7524745900       -0.2651284706
 N         -2.2993727797        0.3348868804        1.1760003500
 S         -2.5692043702       -0.1606276398       -0.4155097898
 O         -1.5960373004       -1.1688835700       -0.7541172600
 O         -2.6548328903        0.9918433500       -1.2826243300
 C         -4.1775188802       -0.9106156297       -0.2396814693
 C         -4.2649559702       -2.1852399696        0.2877527109
 C         -5.5164487502       -2.7571676795        0.4530860013
 C         -6.6532345502       -2.0492174295        0.0915552715
 C         -6.5498030502       -0.7717137996       -0.4377771987
 C         -5.3011242302       -0.1934703797       -0.6046986591
 H         -5.1696828603        0.7929591803       -1.0195583893
 H         -7.4345045803       -0.2247697595       -0.7211444885
 H         -7.6257126702       -2.4972913294        0.2204848518
 H         -5.6004947601       -3.7512811994        0.8614788415
 H         -3.3534805901       -2.6994344196        0.5449495407
 H         -3.1622584396        0.4945088405        1.6775526502
 H         -2.2961079991        2.0880392206        3.1728840598
 H         -0.5221142088        3.7407408106        3.6255614691
 H          1.4302504308        3.9073959402        2.1302373985
 H          2.7656826003        2.9317002099        0.4474386383
 C          1.6417441998        3.3881706397       -1.3001690515
 C          0.2620301897        3.6128794897       -1.8338990211
 C          0.9610068800        4.7087833298       -1.0898915915
 H          1.3154936199        5.5630356197       -1.6464504817
 H          0.6087400803        4.9396682600       -0.0961880314
 H          0.1502608994        3.6917013196       -2.9045946411
 H         -0.5613043102        3.0977483299       -1.3614745408
 H          2.4375310596        3.3619209096       -2.0376326017
