  62
        -98.93907559
 C         -2.3582377510       -1.1698233895       -0.0779680996
 C         -3.4591268709       -0.8722984954        0.7599317789
 C         -4.4147199257        0.1451593924        0.2820026705
 C         -4.1816091030        0.7436172322       -0.9009617939
 C         -4.9816637653        1.8276745657       -1.5735521844
 C         -4.7644530315        3.2088050891       -0.9360385344
 C         -4.7964731737        3.2228648099        0.5898002762
 H         -4.0235258718        2.5521772625        0.9696687246
 H         -4.5367047015        4.2331165331        0.9170244947
 C         -6.1408718475        2.8592816070        1.2158768843
 H         -6.0475051272        3.0143649945        2.2937126046
 H         -6.9052076809        3.5467322430        0.8469749880
 C         -6.6218188333        1.4247775324        0.9844270331
 H         -7.0461031640        1.3062767725       -0.0089909372
 H         -7.4337795657        1.2361841263        1.6926945581
 C         -5.5666131955        0.3525736781        1.2359666420
 H         -6.0673419654       -0.6206479717        1.3046409188
 H         -5.1180420199        0.5142285670        2.2227264307
 H         -5.5225227942        3.8906525919       -1.3253414006
 H         -3.7849725059        3.5766872280       -1.2522311351
 H         -4.6430989999        1.8673177723       -2.6113466137
 H         -6.0356155271        1.5660989338       -1.5788236706
 O         -3.0952009721        0.4387283146       -1.6672905495
 C         -2.1642741249       -0.5119757276       -1.2916354366
 O         -1.2432594529       -0.6757002984       -2.1163835778
 O         -3.6445913115       -1.4355778665        1.8720737972
 C         -1.3602920525       -2.2153313417        0.3922837317
 C         -0.0555162500       -1.5228484289        0.6966919858
 C          0.0987208633       -0.8687139835        1.9162164381
 C          1.2569193580       -0.1707700114        2.2009551652
 C          2.2823052221       -0.1012599938        1.2732277375
 C          2.1300194658       -0.7339886154        0.0475441486
 C          0.9745618557       -1.4541373041       -0.2276311765
 H          0.8658589076       -1.9304797176       -1.1889959779
 N          3.1593453929       -0.6628280309       -0.9066251903
 S          3.8721710741        0.8272784542       -1.2022519147
 O          2.9638635233        1.9228563115       -0.9525913067
 O          4.4107613699        0.7298308481       -2.5417721650
 C          5.2252068984        0.8785801173       -0.0433530218
 C          5.3993015661        1.9866531995        0.7625014119
 C          6.4668340464        2.0122328565        1.6466836700
 C          7.3376798957        0.9352807100        1.7082658940
 C          7.1506339741       -0.1691858208        0.8903542681
 C          6.0863223176       -0.2004604136        0.0035972994
 H          5.9072744395       -1.0383273169       -0.6491565456
 H          7.8294381078       -1.0052119939        0.9414666763
 H          8.1666604513        0.9568624424        2.3979137563
 H          6.6132328751        2.8703974370        2.2828379509
 H          4.6925508716        2.7976660603        0.6848485856
 H          2.9295465161       -1.1237102882       -1.7756911460
 H          3.1832853832        0.4515986737        1.4832178915
 H          1.3641719222        0.3274069227        3.1525495968
 H         -0.7101329643       -0.9054618601        2.6326800163
 H         -1.7700364913       -2.6023001593        1.3349376793
 C         -1.2336792924       -3.3600373605       -0.5907879577
 C         -0.5714013351       -4.6314130139       -0.1536712088
 C         -2.0517932492       -4.5976167570       -0.3825493745
 H         -2.4526206838       -5.1004825931       -1.2499338046
 H         -2.7039270960       -4.6258875750        0.4779397938
 H          0.0466527650       -5.1616025394       -0.8619704624
 H         -0.2168554716       -4.6809360296        0.8646088343
 H         -1.0855202002       -3.0344571632       -1.6134477033
