  62
        -98.94606503
 C         -1.4142174013        0.8323622513        0.0985200837
 C         -2.5008405402        0.8592459133       -0.8143753729
 C         -3.4716384383       -0.2367167018       -0.7173045986
 C         -3.2722344159       -1.2068921726        0.1930450134
 C         -4.1986118511       -2.3631661933        0.4328993941
 C         -5.2385975272       -2.0295015140        1.5115865587
 C         -5.9459058195       -0.6918926319        1.2934284681
 H         -6.6768719915       -0.5759008522        2.0964966732
 H         -5.2187696352        0.1161665449        1.4004629238
 C         -6.6515451683       -0.5610742942       -0.0635573340
 H         -6.7933355174       -1.5486871446       -0.5038554442
 H         -7.6428520104       -0.1322682827        0.0972974756
 C         -5.9331566262        0.3422409042       -1.0677335068
 H         -5.7049995826        1.3025314371       -0.5986504529
 H         -6.6164356031        0.5378092564       -1.8984568731
 C         -4.6375755280       -0.2210362879       -1.6655381733
 H         -4.8206178820       -1.2203833204       -2.0663323063
 H         -4.3412297155        0.4312747632       -2.4923032086
 H         -5.9760636049       -2.8337605143        1.5400600004
 H         -4.7335628194       -1.9968305511        2.4797592803
 H         -4.6963009875       -2.6211018121       -0.5001636852
 H         -3.6029583352       -3.2163947568        0.7628426232
 O         -2.2141008828       -1.2140682605        1.0390617869
 C         -1.2582029262       -0.2054733310        1.0188454766
 O         -0.3589031812       -0.3650502660        1.8665161425
 H          0.8414504819       -0.4169094918       -0.4376942216
 C          1.2464221754        0.3755719046       -1.0461746655
 C          0.7046995965        1.6498251039       -0.9796138199
 C          1.2313628351        2.6424980973       -1.7992315279
 C          2.2739181652        2.3626042510       -2.6630245615
 C          2.8184168593        1.0922844739       -2.7193456676
 C          2.2968609081        0.0908161597       -1.9082569497
 N          2.8127524314       -1.2113363476       -1.9630356027
 S          2.9379938308       -2.1373843443       -0.5744717748
 O          3.8986429395       -3.1621600178       -0.9291247986
 O          1.6396697891       -2.6108070862       -0.1684518012
 C          3.6610877653       -1.0400856921        0.6308336559
 C          2.9077084794       -0.5109957016        1.6575543625
 C          3.5122016994        0.3797855607        2.5330023189
 C          4.8438497206        0.7244292269        2.3680747917
 C          5.5882763775        0.1771269439        1.3335099059
 C          4.9925105267       -0.7114959666        0.4550849847
 H          5.5386977484       -1.1702849495       -0.3531572282
 H          6.6258724448        0.4419438749        1.2093983775
 H          5.3039284642        1.4207471199        3.0513963570
 H          2.9296670398        0.7999737953        3.3378489096
 H          1.8693785010       -0.7859593861        1.7628580559
 H          3.6222724021       -1.3216710569       -2.5558723339
 H          3.6306090296        0.8700747609       -3.3941580649
 H          2.6688734193        3.1401532319       -3.2986056968
 H          0.8066700838        3.6342545591       -1.7684192316
 C         -0.4188656497        1.9710436617       -0.0194533533
 H         -0.9870409127        2.8082872189       -0.4494735521
 C          0.1705783390        2.4215973224        1.3037163294
 C          0.5864033483        3.8491936772        1.4855721122
 C         -0.6233253355        3.3241605685        2.1977732827
 H         -0.5747936167        3.1627746052        3.2639714785
 H         -1.5968055609        3.6390761866        1.8503607546
 H          0.4280554889        4.5309068033        0.6642658079
 H          1.4745965718        4.0543755467        2.0625204058
 H          0.7723931236        1.6590022145        1.7793061861
 O         -2.6524090904        1.7720024404       -1.6714781653
