  62
        -98.94124496
 C         -2.4352319042       -1.1247718990        0.4715285787
 C         -2.6725245416       -0.3119021476       -0.6635240795
 C         -3.1252965897        1.0605796525       -0.3881885377
 C         -3.2992888276        1.4636084106        0.8822264487
 C         -3.7185495233        2.8424214640        1.2999832687
 C         -2.5052892780        3.7428848755        1.5677972622
 C         -1.4582332363        3.7315572932        0.4531692600
 H         -0.6833339845        4.4503911544        0.7302195862
 H         -0.9728511226        2.7526975336        0.4120107850
 C         -2.0018337627        4.0860505811       -0.9378106730
 H         -2.9545130022        4.6095721735       -0.8440326039
 H         -1.2989900375        4.7691676260       -1.4197061203
 C         -2.1669135921        2.8896834585       -1.8770712275
 H         -1.2448543555        2.3001253348       -1.8696226557
 H         -2.3036811984        3.2704743246       -2.8932492225
 C         -3.3482901003        1.9589142581       -1.5716730145
 H         -4.2584126263        2.5490989087       -1.4464438441
 H         -3.4829858687        1.2965285673       -2.4320048304
 H         -2.8629299881        4.7633419512        1.7193239880
 H         -2.0228259846        3.4101204612        2.4895761611
 H         -4.3417863329        3.2774155710        0.5210854348
 H         -4.3042409109        2.7580478503        2.2171929248
 O         -3.0798380829        0.6516284424        1.9471496281
 C         -2.6150874923       -0.6388829489        1.7701453578
 O         -2.4170555089       -1.2604438400        2.8334328925
 H         -0.3997725902       -1.2171389854       -1.4107166311
 C          0.2135944689       -1.7031280317       -0.6661110341
 C         -0.3905416010       -2.4724506613        0.3195015020
 C          0.4180784071       -3.0847625479        1.2688208165
 C          1.7928226520       -2.9193553977        1.2365256753
 C          2.3859628825       -2.1245416439        0.2706985517
 C          1.5837279335       -1.5137075803       -0.6831269832
 N          2.1709157673       -0.6257478297       -1.6266485017
 S          2.2954313074        0.9278706985       -0.9705112178
 O          1.1785583498        1.2255736247       -0.1009600254
 O          2.4900308020        1.8193482599       -2.0930527362
 C          3.7969637537        0.8097173011       -0.0249971596
 C          4.9976505475        0.7671869228       -0.7067824181
 C          6.1721366224        0.6294165418        0.0153618982
 C          6.1250621500        0.5335575250        1.3984416730
 C          4.9113947581        0.5785446687        2.0676265851
 C          3.7326947949        0.7171356278        1.3510101814
 H          2.7656039473        0.7518241071        1.8276360884
 H          4.8759664930        0.5027420568        3.1425541421
 H          7.0397553934        0.4228935270        1.9591866498
 H          7.1179388439        0.5945840373       -0.5008021910
 H          4.9843844438        0.8487083637       -1.7808619893
 H          1.6174936078       -0.5561692437       -2.4715164460
 H          3.4529395498       -1.9727113514        0.2503695436
 H          2.4071252024       -3.4004651237        1.9819582190
 H         -0.0409646079       -3.6723759163        2.0504712431
 C         -1.8940867841       -2.5458773586        0.3845824989
 H         -2.1666075992       -3.0184264091        1.3409046813
 C         -2.5237297226       -3.3669223649       -0.7319304125
 C         -1.7528503913       -3.9142317546       -1.8928444608
 C         -2.2377402899       -4.8373507591       -0.8185586200
 H         -3.0511063837       -5.5117984559       -1.0385570367
 H         -1.5020372299       -5.2374250461       -0.1370571217
 H         -2.2435682320       -3.9283363851       -2.8542124028
 H         -0.6948325044       -3.7110440937       -1.9491849841
 H         -3.5424640238       -3.0573783039       -0.9391885983
 O         -2.5218904333       -0.6909883512       -1.8558984056
