  62
        -98.93792230
 C         -1.9089158900       -0.8294437203        0.2742290398
 C         -2.3922223602        0.3536799600       -0.3277282895
 C         -3.7945798902        0.7210700297       -0.0400266491
 C         -4.5175582399       -0.0655404407        0.7787937208
 C         -5.9593663999        0.0836365289        1.1866533411
 C         -6.9361208601       -0.3325366707        0.0756339112
 C         -6.5866098204        0.1917549500       -1.3144045087
 H         -5.5899205904       -0.1580022998       -1.5891014790
 H         -7.2922342705       -0.2500815198       -2.0229045787
 C         -6.6540119706        1.7088873000       -1.4729154680
 H         -6.4846968109        1.9320519305       -2.5294668279
 H         -7.6596208706        2.0516692498       -1.2192203076
 C         -5.6436120805        2.5137262098       -0.6518463579
 H         -5.9571627803        2.5990478793        0.3852171723
 H         -5.6325484907        3.5303684700       -1.0557777574
 C         -4.2090825105        2.0002962100       -0.7264438184
 H         -3.9228721807        1.8869476305       -1.7784091885
 H         -3.5401211605        2.7740725698       -0.3301589582
 H         -6.9474968700       -1.4241341207        0.0269752807
 H         -7.9368131500        0.0029016891        0.3532426515
 H         -6.1105930696       -0.5735816415        2.0459151609
 H         -6.1534172199        1.1015891388        1.5111295816
 O         -4.0014461997       -1.1929750209        1.3477840401
 C         -2.7028796797       -1.6004452107        1.1229550697
 O         -2.3727999595       -2.6420963409        1.7250869491
 H          1.4100988196        0.2388668908       -1.2890388104
 C          1.3673970098        0.4469074203       -0.2315813403
 C          0.4657354600       -0.2301685701        0.5727901396
 C          0.4346639003        0.0690809092        1.9326394797
 C          1.2788890103        1.0216731091        2.4699943499
 C          2.1760476401        1.6993687795        1.6614321100
 C          2.2124439598        1.4094224301        0.3059083899
 N          3.1541759496        2.0739451806       -0.5139390800
 S          4.7473582497        1.6424665506       -0.2158634106
 O          5.1456655499        2.1733696201        1.0621874396
 O          5.5021288394        2.0937106512       -1.3626285905
 C          4.7039152699       -0.1400278494       -0.1566914913
 C          4.4572793402       -0.7672425200        1.0480093984
 C          4.3169514903       -2.1456279500        1.0677668779
 C          4.4238082502       -2.8683548394       -0.1104635625
 C          4.6764395198       -2.2237964489       -1.3118752723
 C          4.8107851397       -0.8453136289       -1.3389166017
 H          5.0093193294       -0.3058835284       -2.2512191115
 H          4.7610482997       -2.7905306585       -2.2251118525
 H          4.3100713903       -3.9410502895       -0.0922243029
 H          4.1183480006       -2.6490072104        2.0004061977
 H          4.3831414803       -0.1713190104        1.9427682187
 H          2.9577260494        1.9678690510       -1.4997590500
 H          2.8544703101        2.4355029494        2.0614791202
 H          1.2398261606        1.2404150486        3.5264946800
 H         -0.2669292395       -0.4601925511        2.5634388096
 C         -0.4774491800       -1.2822717600        0.0442780593
 H         -0.3480172697       -2.1865213003        0.6553020389
 C         -0.2459233203       -1.6388549293       -1.4086025509
 C          0.9198006597       -2.5040144991       -1.7819889315
 C         -0.4740214302       -3.0493288192       -1.8577633015
 H         -0.9120517104       -3.2153881788       -2.8305861314
 H         -0.7879370200       -3.7641478895       -1.1112507817
 H          1.4400752895       -2.2993082286       -2.7054407916
 H          1.5601811300       -2.8472612393       -0.9836602918
 H         -0.5350851005       -0.8454881591       -2.0880150305
 O         -1.6945405105        1.0802508504       -1.0839046694
