  62
        -98.94516644
 C          2.0441815032        0.9547629099        0.0624276439
 C          2.7691521212        0.2521891457        1.0531485621
 C          3.4062380247       -0.9980766761        0.6197599762
 C          3.2205613985       -1.4261389301       -0.6425514833
 C          3.8396768477       -2.6617907728       -1.2275761033
 C          5.1870210807       -2.3474022241       -1.8927622807
 C          6.1319083274       -1.5272240767       -1.0144526150
 H          7.0604581854       -1.3931890319       -1.5733111974
 H          5.7026339211       -0.5346272446       -0.8604896116
 C          6.4423253963       -2.1616142090        0.3484996183
 H          6.1939659046       -3.2233352107        0.3281379231
 H          7.5153491098       -2.0829368783        0.5349382458
 C          5.7356825390       -1.4990616870        1.5325509597
 H          5.9044272987       -0.4197310263        1.5022712469
 H          6.1889024260       -1.8758913897        2.4532415330
 C          4.2251752778       -1.7473530603        1.6333146869
 H          4.0227123327       -2.8190867335        1.5768792165
 H          3.8932824351       -1.3869429410        2.6116544895
 H          4.9963117506       -1.7854227229       -2.8098945815
 H          5.6650745780       -3.2901612023       -2.1647247775
 H          3.1565218485       -3.0640147795       -1.9778390165
 H          3.9739098985       -3.4019237440       -0.4408889200
 O          2.4748836488       -0.7498761505       -1.5530662882
 C          1.8734762253        0.4580322952       -1.2305243872
 O          1.2323062059        0.9777510818       -2.1622627636
 O          2.8714413545        0.6482891752        2.2468245187
 C          1.3613255576        2.2591854285        0.4366238283
 C         -0.1306542751        2.0931544559        0.2861686758
 C         -0.9322300115        2.9345647387       -0.4724918439
 C         -2.2884012851        2.6845081833       -0.5976556342
 C         -2.8730735139        1.6004510004        0.0305958215
 C         -2.0814093427        0.7582342976        0.8007722705
 C         -0.7268275025        1.0134591727        0.9279262924
 H         -0.1101408061        0.3497999717        1.5231213927
 N         -2.6725038998       -0.3556107204        1.4413435077
 S         -3.2055817861       -1.5684097858        0.3980248961
 O         -3.2686942537       -2.7656458140        1.2091155074
 O         -2.3845613091       -1.6423500012       -0.7901056976
 C         -4.8579388549       -1.0608352194       -0.0244776485
 C         -5.8007982383       -1.0063511169        0.9836909576
 C         -7.0904314915       -0.6071287275        0.6712148282
 C         -7.4130772000       -0.2733075914       -0.6359639439
 C         -6.4553351666       -0.3363316226       -1.6367709807
 C         -5.1627988880       -0.7337779508       -1.3310425481
 H         -4.3819852997       -0.7918259570       -2.0726688583
 H         -6.7074981869       -0.0762759950       -2.6522660305
 H         -8.4173459045        0.0376188288       -0.8769431371
 H         -7.8381625189       -0.5569105912        1.4461355671
 H         -5.5071339437       -1.2801601938        1.9832080250
 H         -2.0614876624       -0.7732142339        2.1306375742
 H         -3.9278706562        1.4021949577       -0.0672424045
 H         -2.8980361487        3.3428243157       -1.1973670318
 H         -0.4933947538        3.7787373216       -0.9780838071
 H          1.5838031341        2.4096425218        1.5035230248
 C          1.9352100272        3.4169702444       -0.3507148353
 C          1.8756253064        4.8066343762        0.2074017768
 C          3.1845078283        4.0802015271        0.1438493770
 H          3.9196685354        4.3990550684       -0.5797433661
 H          3.6115137602        3.7102069068        1.0647049977
 H          1.7138941757        5.6289129938       -0.4727964402
 H          1.4151197244        4.9361459610        1.1749883527
 H          1.8288276395        3.2864622435       -1.4215949708
