  62
        -98.93693806
 C          2.1268771728        1.3270581234        0.0282563401
 C          2.9330764658        0.6470992860        0.9674671990
 C          3.7257917597       -0.4897456323        0.4628679903
 C          3.6415867536       -0.8153515690       -0.8397885804
 C          4.3364632508       -1.9288169906       -1.5826598410
 C          5.8243981928       -2.1491077449       -1.2688894641
 C          6.0980344056       -3.4343592597       -0.4856249415
 H          5.4465026879       -4.2212441921       -0.8716212893
 H          7.1286192406       -3.7442711207       -0.6721716380
 C          5.9156430843       -3.3252329827        1.0272128460
 H          6.7290460101       -2.7300242551        1.4476022987
 H          6.0001119106       -4.3317057848        1.4436418319
 C          4.5880549280       -2.7166042685        1.4830566814
 H          4.4001931159       -3.0521425609        2.5053575702
 H          3.7669186704       -3.0895281861        0.8711634125
 C          4.5854958927       -1.1803353304        1.4865349083
 H          4.2137057625       -0.8159638790        2.4493860184
 H          5.6091589321       -0.8056153831        1.3986810403
 H          6.2224694691       -1.2872196529       -0.7358971187
 H          6.3566703380       -2.2152763375       -2.2190909750
 H          4.2124460025       -1.6817512834       -2.6395863160
 H          3.7800640432       -2.8548643948       -1.4151154582
 O          2.8323357219       -0.1416008590       -1.7076277160
 C          2.0529627017        0.9300750726       -1.3061891045
 O          1.3611975780        1.4322404474       -2.2112531803
 O          2.9824005934        0.9677915461        2.1869554286
 C          1.2755730888        2.4957465420        0.4912246646
 C         -0.1831096218        2.1793627554        0.2679641143
 C         -1.0705000821        3.0390868050       -0.3646597762
 C         -2.3897096311        2.6655369264       -0.5579952743
 C         -2.8537971127        1.4387399857       -0.1212261241
 C         -1.9762782433        0.5738344907        0.5200537134
 C         -0.6577629083        0.9517954736        0.7148159579
 H          0.0262763181        0.2733536395        1.2110114264
 N         -2.4399061218       -0.6737279658        0.9798479602
 S         -3.2030123550       -1.6732793890       -0.1366008025
 O         -3.0210024326       -3.0150915497        0.3748337189
 O         -2.7335063032       -1.4286164946       -1.4808641718
 C         -4.9208938006       -1.2274446887        0.0063848438
 C         -5.5141596585       -1.3122429105        1.2508919486
 C         -6.8512409520       -0.9717376598        1.3787345888
 C         -7.5689024445       -0.5580457975        0.2661435306
 C         -6.9596514961       -0.4822554574       -0.9770079138
 C         -5.6217571745       -0.8200151937       -1.1116655330
 H         -5.1031139570       -0.7700682589       -2.0559865039
 H         -7.5188956536       -0.1610007558       -1.8410196957
 H         -8.6093854528       -0.2931536685        0.3683916477
 H         -7.3285387092       -1.0294888356        2.3436646408
 H         -4.9216529079       -1.6421354253        2.0877618757
 H         -1.7390684854       -1.1961892551        1.4865008953
 H         -3.8781609629        1.1423039695       -0.2772651556
 H         -3.0661730285        3.3405708517       -1.0595831396
 H         -0.7273404972        3.9970085381       -0.7188485773
 H          1.4476624178        2.5717890696        1.5752446773
 C          1.7308405719        3.7808806341       -0.1662014108
 C          1.5279469508        5.0947214074        0.5257847291
 C          2.9037131993        4.5122901994        0.4124148531
 H          3.6078334756        4.9733055551       -0.2638102428
 H          3.3596013058        4.0948733536        1.2984116279
 H          1.2891577174        5.9609367428       -0.0724443673
 H          1.0506262220        5.0805878275        1.4937807012
 H          1.6450381621        3.7482503779       -1.2465240989
