  62
        -98.93772714
 C         -1.6400030953       -1.4866382759        0.0227750009
 C         -2.7983969383       -0.9069584724        0.5909335610
 C         -3.3695086302        0.2690224989       -0.0908657374
 C         -2.7460132732        0.7447121469       -1.1845596034
 C         -3.1137125785        1.9582125873       -1.9937074502
 C         -2.6628943253        3.2644212750       -1.3143549298
 C         -2.8451351202        3.3038731213        0.2017043568
 H         -2.3179829216        2.4539163998        0.6415381083
 H         -2.3460721623        4.2044725714        0.5711687730
 C         -4.2914438794        3.3359257362        0.6922148477
 H         -4.2649366649        3.3543573326        1.7849296908
 H         -4.7563942995        4.2658098987        0.3556779085
 C         -5.1806838529        2.1736243813        0.2505906536
 H         -5.4274669304        2.2628731976       -0.8037599117
 H         -6.1229613893        2.2597076011        0.8002051885
 C         -4.6329111476        0.7820581560        0.5568884602
 H         -5.4144194605        0.0465157299        0.3273641456
 H         -4.4617428357        0.6980647846        1.6360706534
 H         -3.1958762187        4.0997488083       -1.7717016836
 H         -1.5948215457        3.3907442992       -1.5087602791
 H         -2.5973711270        1.8706317221       -2.9519984543
 H         -4.1822563677        1.9630928108       -2.1891886012
 O         -1.6133985936        0.1788579856       -1.6798667509
 C         -1.0095182783       -0.9112324721       -1.0823167594
 O          0.0480673113       -1.2678056849       -1.6344544808
 O         -3.3325771730       -1.3455432675        1.6480160381
 C         -0.9991442816       -2.6556559216        0.7545460779
 C          0.4603013496       -2.3392127399        0.9563613623
 C          1.5082782193       -3.1238571265        0.4950360599
 C          2.8186669391       -2.6966050996        0.6303286926
 C          3.1087073870       -1.4698882629        1.1997347915
 C          2.0665069720       -0.6871517147        1.6772699421
 C          0.7626913328       -1.1363154705        1.5841613178
 H         -0.0444556236       -0.5087591374        1.9443136919
 N          2.3536995183        0.6237804524        2.1634937489
 S          2.0625199032        1.7551074236        0.9362967789
 O          2.3746657314        3.0463653568        1.5146821854
 O          0.7215702907        1.6282264008        0.4067433135
 C          3.2860024648        1.3094481952       -0.2707640587
 C          2.9637550012        0.4210772239       -1.2774364718
 C          3.9568934414        0.0424951485       -2.1686145613
 C          5.2396924626        0.5513636142       -2.0375428306
 C          5.5440989906        1.4431751029       -1.0195281762
 C          4.5595124462        1.8248437031       -0.1232586233
 H          4.7437192518        2.5147970729        0.6837647459
 H          6.5426339945        1.8373297316       -0.9204259841
 H          6.0065761700        0.2499081188       -2.7336500016
 H          3.7162495299       -0.6542623071       -2.9554374759
 H          1.9585333991        0.0335205389       -1.3531285192
 H          1.7728605746        0.8773060912        2.9530537697
 H          4.1208787692       -1.1062685127        1.2706926150
 H          3.6216476554       -3.3141299006        0.2588938068
 H          1.2967969445       -4.0554657574       -0.0037438668
 H         -1.4915687657       -2.6595129176        1.7420664654
 C         -1.2547409499       -4.0206322027        0.1371773608
 C         -2.4902556428       -4.2782732776       -0.6711851154
 C         -1.1480422133       -4.2710808763       -1.3360051952
 H         -0.7372980499       -5.2143152887       -1.6651039227
 H         -0.8887446904       -3.4360081106       -1.9668804223
 H         -2.9996537587       -5.2216334735       -0.5438271747
 H         -3.1531937935       -3.4435021253       -0.8484580925
 H         -0.9354989525       -4.8252723963        0.7924846484
