  62
        -98.94108562
 C          2.2002361340        1.0117167570        0.6681709035
 C          2.1843526552        0.1105662109       -0.4257923403
 C          3.0557500789       -1.0665992832       -0.2920967819
 C          3.7453938435       -1.2706673035        0.8437314559
 C          4.6622244984       -2.4283868127        1.1313087944
 C          6.0845943851       -2.2463746063        0.5836638880
 C          6.2191019136       -2.3715386822       -0.9345413182
 H          7.2857949205       -2.4420591687       -1.1561600545
 H          5.7559461914       -3.3023913165       -1.2633565122
 C          5.6286527280       -1.1943865068       -1.7234116146
 H          5.4883018670       -0.3415365866       -1.0552754338
 H          6.3352737944       -0.8823003854       -2.4955303221
 C          4.3027374654       -1.4999403722       -2.4205875222
 H          4.4578639320       -2.2634364911       -3.1860255737
 H          3.9586987775       -0.5899518808       -2.9188430282
 C          3.1887186371       -1.9738159283       -1.4776976429
 H          2.2405857396       -1.9495413343       -2.0214622490
 H          3.3782829169       -2.9975502131       -1.1548890812
 H          6.4597016096       -1.2715507548        0.9038779431
 H          6.7114059469       -3.0119296783        1.0466472784
 H          4.7199373230       -2.5167672036        2.2184436619
 H          4.2304535081       -3.3462452090        0.7309347902
 O          3.6646182441       -0.4259173283        1.9067385226
 C          2.9060703630        0.7325071890        1.8408414928
 O          2.9276725758        1.4147512438        2.8853482424
 H         -0.2946235412        0.5403499436        1.7121870318
 C         -0.7515066556        1.0392724175        0.8648416786
 C         -0.0190429160        1.9975310281        0.1741860442
 C         -0.6088373125        2.6212616858       -0.9164975956
 C         -1.8943818555        2.2840792196       -1.3031958246
 C         -2.6185451111        1.3291216259       -0.6140502599
 C         -2.0360688086        0.6949146384        0.4756825687
 N         -2.7654444421       -0.2712804143        1.1920624165
 S         -3.5230488845       -1.5001012412        0.3331852176
 O         -3.6503047901       -2.5899425065        1.2774399028
 O         -2.8365540660       -1.7978352432       -0.9020449632
 C         -5.1413403067       -0.8387423656       -0.0063942668
 C         -5.6031638976       -0.7808495073       -1.3066568038
 C         -6.8680740939       -0.2663317459       -1.5460549071
 C         -7.6445512803        0.1773097696       -0.4866103558
 C         -7.1672189926        0.1090649133        0.8139408346
 C         -5.9042558668       -0.4050170863        1.0601579368
 H         -5.4974778668       -0.4793667252        2.0548121448
 H         -7.7740292544        0.4546088822        1.6352976438
 H         -8.6276480279        0.5785985767       -0.6756541020
 H         -7.2407830287       -0.2131997887       -2.5563686516
 H         -4.9609812238       -1.1322376950       -2.0987582819
 H         -2.2614037669       -0.6543817829        1.9789203306
 H         -3.6167997834        1.0599557811       -0.9181201332
 H         -2.3382409250        2.7706562952       -2.1583670199
 H         -0.0531437178        3.3506969853       -1.4821235112
 C          1.3796471038        2.2905020864        0.6603434854
 H          1.3080655393        2.5866147962        1.7203347868
 C          2.0443436603        3.4499022413       -0.0671009826
 C          3.5370283863        3.5395559299       -0.1717276574
 C          2.7141326622        3.2853278315       -1.3969246522
 H          2.6173402219        4.0811716903       -2.1209932076
 H          2.7244111881        2.2988559166       -1.8320155851
 H          4.1170690141        2.7239391065        0.2358802238
 H          4.0022941752        4.5065100380       -0.0524765019
 H          1.5207481943        4.3856104759        0.1025526087
 O          1.4900914655        0.2665192612       -1.4623378757
