  62
        -98.93550914
 C         -2.7754602698       -0.4236857209       -0.2503433221
 C         -2.0479576022        0.4904125595       -1.0486133943
 C         -2.1784014999        1.9168431885       -0.7005398933
 C         -2.9736790263        2.2857801055        0.3168870280
 C         -3.2897387696        3.6735603146        0.8165640470
 C         -2.1339931278        4.6778978988        0.9107403553
 C         -0.7765875487        4.0715249617        1.2961197424
 H         -0.3581054667        4.6375610743        2.1306600537
 H         -0.9024550509        3.0415037279        1.6364657410
 C          0.2400388830        4.0999187959        0.1529210876
 H          0.1854987640        5.0708922702       -0.3450408778
 H          1.2416360675        3.9993814995        0.5783884200
 C          0.0800088789        2.9888933795       -0.8836059130
 H          0.3429362091        2.0302838495       -0.4248057502
 H          0.7965145765        3.1745407477       -1.6883805494
 C         -1.3239144198        2.8587084750       -1.4992505835
 H         -1.7949041789        3.8319821900       -1.6126981470
 H         -1.2186910840        2.4052697417       -2.4885429552
 H         -2.0309109479        5.2068306391       -0.0356346510
 H         -2.4243155090        5.4206919022        1.6557571333
 H         -4.0753197270        4.0917473480        0.1801089504
 H         -3.7250565566        3.5241488700        1.8076908573
 O         -3.6763477178        1.3745961137        1.0482810408
 C         -3.5768316061        0.0183413242        0.8061536042
 O         -4.2527553609       -0.6881168287        1.5814838256
 H         -0.1501757645       -1.4247924750       -1.1606927502
 C         -0.1875741206       -2.0303286805       -0.2673564420
 C         -1.4195773698       -2.4169400394        0.2404274428
 C         -1.4459330982       -3.1750823044        1.4048994329
 C         -0.2696313014       -3.5201558145        2.0490515693
 C          0.9546840168       -3.1026239021        1.5569307385
 C          0.9875099866       -2.3474154004        0.3930689838
 N          2.2279407308       -1.8510937425       -0.0890635636
 S          2.7875919196       -0.5972099879        0.9082672315
 O          3.2789824278       -1.1894970810        2.1272738477
 O          1.7638518936        0.4134605071        1.0642185902
 C          4.1478408463        0.0347898539       -0.0538151204
 C          5.3661284508       -0.6139359298        0.0091516479
 C          6.4130895834       -0.1467383253       -0.7691083605
 C          6.2243457879        0.9529536666       -1.5932288867
 C          4.9951083554        1.5927266287       -1.6456992133
 C          3.9431119190        1.1297947521       -0.8708442942
 H          2.9716993237        1.5992749798       -0.8760950944
 H          4.8504704256        2.4480882122       -2.2859233975
 H          7.0404853755        1.3152615318       -2.1981830919
 H          7.3707116747       -0.6403484921       -0.7309544994
 H          5.4662986212       -1.4590480381        0.6696356377
 H          2.1025960247       -1.4622395460       -1.0172369540
 H          1.8750707176       -3.3239743990        2.0723562918
 H         -0.3079058489       -4.1054905140        2.9555249690
 H         -2.3991263426       -3.4680682800        1.8214606697
 C         -2.6925366316       -1.9361119047       -0.4145652823
 H         -3.5396783615       -2.3447872431        0.1520760180
 C         -2.8056945480       -2.4004836695       -1.8523553934
 C         -3.2043387974       -3.8186445081       -2.1246901453
 C         -4.1587512564       -2.7015105560       -2.4196888139
 H         -4.3525732036       -2.4441519886       -3.4500655296
 H         -5.0127397246       -2.5740763114       -1.7702040984
 H         -2.7422444373       -4.3329547925       -2.9531622524
 H         -3.4124487818       -4.4508937584       -1.2747344774
 H         -2.0829373702       -1.9428760748       -2.5139783012
 O         -1.3197114356        0.1635656529       -2.0246660520
