  62
        -98.94592462
 C          1.2954560369        1.4214706831        0.6189783481
 C          2.3725717615        1.3126720070       -0.2952830702
 C          3.3709045596        0.2745191364        0.0085062589
 C          3.2178474031       -0.4986303984        1.0977214981
 C          4.1365601664       -1.6174213949        1.4949954905
 C          3.6978571638       -2.9589685653        0.8904006119
 C          3.3888435006       -2.8943270446       -0.6051776584
 H          3.1146443694       -3.9025667616       -0.9226493225
 H          2.5185207066       -2.2540717899       -0.7653732622
 C          4.5514358044       -2.3897745714       -1.4709645723
 H          5.4879667959       -2.4671796086       -0.9172670961
 H          4.6400896343       -3.0337080700       -2.3483925428
 C          4.3839865471       -0.9586636827       -1.9841637450
 H          3.4051281696       -0.8498804160       -2.4576858743
 H          5.1411304367       -0.7827119368       -2.7528949055
 C          4.5360810475        0.1470373246       -0.9322597535
 H          5.4647589379        0.0015417468       -0.3765802030
 H          4.5988371140        1.1022877037       -1.4613881205
 H          4.4891130811       -3.6895253842        1.0685829467
 H          2.8021835064       -3.3011817633        1.4140837770
 H          5.1474803114       -1.3770803405        1.1707354762
 H          4.1259329749       -1.6985968244        2.5834672040
 O          2.1721281288       -0.3646672250        1.9541192098
 C          1.1962847681        0.5939490381        1.7406438108
 O          0.3037684610        0.6122243625        2.6132077798
 H         -2.2180219820        1.2650441896        0.8357229108
 C         -1.9827796787        1.3557842799       -0.2142180296
 C         -0.7923634586        1.9514205989       -0.6089861075
 C         -0.5178018590        2.0608078898       -1.9683449347
 C         -1.4197449825        1.5865403747       -2.9030770088
 C         -2.6011348360        0.9851723493       -2.5061131372
 C         -2.8825073098        0.8653237986       -1.1505074154
 N         -4.0756782833        0.2635240836       -0.7170238359
 S         -4.0399814627       -0.8102709803        0.5659758565
 O         -5.2645387082       -1.5690873123        0.4274431939
 O         -3.8771843119       -0.0968652175        1.8058987172
 C         -2.6392381748       -1.8619771714        0.2342458255
 C         -1.4532879391       -1.6847003361        0.9152243707
 C         -0.3706379212       -2.4864184010        0.5879590997
 C         -0.4881814499       -3.4427679810       -0.4073619697
 C         -1.6899132390       -3.6116982614       -1.0791717074
 C         -2.7749804762       -2.8134453092       -0.7591241492
 H         -3.7295302893       -2.9230038357       -1.2479768166
 H         -1.7806231123       -4.3601766218       -1.8497190691
 H          0.3605899954       -4.0600451352       -0.6564870171
 H          0.5587243065       -2.3464512743        1.1176258090
 H         -1.3773413967       -0.9338588803        1.6864374900
 H         -4.6595011446       -0.0858238121       -1.4634220473
 H         -3.3025178211        0.6133559556       -3.2373600853
 H         -1.1968244522        1.6795079165       -3.9551256167
 H          0.4162834963        2.4966177090       -2.2842260927
 C          0.1731595327        2.4350367763        0.4471989709
 H         -0.3648579762        2.4454295134        1.4050721681
 C          0.6770293172        3.8373530097        0.1696855528
 C         -0.2503693390        4.9935484712        0.3863066888
 C          0.9030915921        4.7725150743        1.3173854995
 H          1.7418952882        5.4508973357        1.2719886861
 H          0.6929680247        4.4055883808        2.3120056648
 H         -0.2060598270        5.8259790288       -0.2989632423
 H         -1.2436204033        4.7753099756        0.7500251887
 H          1.3718983799        3.8952845495       -0.6570143786
 O          2.5199537870        2.0384345359       -1.3121777052
