  62
        -98.93699490
 C          1.7956294993        0.6719319769        0.7187308707
 C          2.7778480297        1.0935374325       -0.2067105081
 C          4.1261971370        0.5015257159       -0.0666019327
 C          4.3497401981       -0.3925076014        0.9132598569
 C          5.6139698826       -1.1505251390        1.2210704846
 C          5.8698901998       -2.3032717856        0.2374980080
 C          5.6515533830       -1.9531355432       -1.2319483687
 H          5.7671547776       -2.8723749595       -1.8123502408
 H          4.6240390050       -1.6113534134       -1.3693881503
 C          6.6146755923       -0.9149794079       -1.8028487178
 H          7.6394968865       -1.2738126656       -1.6844695558
 H          6.4111692094       -0.8398919664       -2.8740749080
 C          6.5170461655        0.4895531855       -1.2029246615
 H          7.0152845469        0.5417974411       -0.2386146535
 H          7.0607230493        1.1656918504       -1.8692188895
 C          5.0973234707        1.0357267584       -1.0923345889
 H          5.1526430445        2.1151871169       -0.9074997454
 H          4.5983454684        0.9360024821       -2.0628460843
 H          5.1891880340       -3.1201530401        0.4901332010
 H          6.8914695185       -2.6590188828        0.3822059442
 H          6.4606329853       -0.4711020718        1.2492775365
 H          5.4904763988       -1.5693789751        2.2223689153
 O          3.3704097177       -0.7702701522        1.7854278916
 C          2.0917258104       -0.2592902087        1.7173946843
 O          1.3178725277       -0.6953065394        2.5950387734
 H         -1.4261739188       -0.8084824576        0.9759235758
 C         -1.3036776888       -0.5185533680       -0.0574030867
 C         -0.4173217845        0.4957227260       -0.3940360888
 C         -0.2555205193        0.8239313314       -1.7365120427
 C         -0.9636927128        0.1471511994       -2.7121924167
 C         -1.8579901896       -0.8526122894       -2.3718683245
 C         -2.0250830166       -1.1906794769       -1.0346707940
 N         -2.9246231363       -2.2050372582       -0.6574948440
 S         -4.0490396330       -1.8722508351        0.5369207408
 O         -3.4089316436       -1.8044572229        1.8250133910
 O         -5.0631643130       -2.8912874504        0.3776081608
 C         -4.7053930854       -0.2786408357        0.0792349848
 C         -4.1932723297        0.8636884627        0.6596893441
 C         -4.6556141343        2.0976721001        0.2300597369
 C         -5.6155869871        2.1668261852       -0.7674580871
 C         -6.1252737045        1.0095700810       -1.3365743558
 C         -5.6634862834       -0.2262821460       -0.9145910579
 H         -6.0389611340       -1.1502384993       -1.3237395961
 H         -6.8760505037        1.0672820607       -2.1080383755
 H         -5.9698566780        3.1295591070       -1.1001702350
 H         -4.2615844765        2.9986916594        0.6724923639
 H         -3.4518096453        0.7654643075        1.4361600204
 H         -3.3726590060       -2.6637284600       -1.4382007094
 H         -2.4139073453       -1.3771811441       -3.1342863183
 H         -0.8228029305        0.4055073594       -3.7506704470
 H          0.4546018205        1.5880167252       -2.0092835135
 C          0.3635648241        1.1866458252        0.6985882865
 H         -0.0686588511        0.8772812429        1.6602540344
 C          0.2808025436        2.6967139245        0.6004774669
 C         -0.9584070506        3.3876853295        1.0798508603
 C          0.3166795522        3.5097115956        1.8579487366
 H          0.8434757178        4.4520685404        1.8470142845
 H          0.3965714509        2.9774385205        2.7952980620
 H         -1.3119729847        4.2487460917        0.5342977242
 H         -1.7414888069        2.7711803695        1.4946066526
 H          0.7872693007        3.1046278201       -0.2633851786
 O          2.5713615636        1.9300614764       -1.1245926794
