  62
        -98.93795089
 C          2.2057641101       -0.9108312634        0.0433884938
 C          3.2167543332       -0.7672578653       -0.9397899024
 C          4.1228627126        0.3791062181       -0.7828334787
 C          3.9246329209        1.2332523496        0.2375931259
 C          4.8017209486        2.4048914872        0.5765137870
 C          6.0822058120        1.9158719407        1.2834711169
 C          7.3692020135        2.1552926498        0.4937293294
 H          8.1627401371        1.5856998334        0.9820646904
 H          7.6341458998        3.2126158688        0.5597058765
 C          7.3228872241        1.7756318686       -0.9894662617
 H          8.3558549398        1.7495658232       -1.3428601072
 H          6.8209338234        2.5626546480       -1.5541937481
 C          6.6558549346        0.4338306956       -1.3183831465
 H          6.6921661734       -0.2349519503       -0.4582589320
 H          7.2284378756       -0.0430311779       -2.1163862161
 C          5.2026751741        0.5455054837       -1.8163045238
 H          5.0196150366       -0.2526112599       -2.5417212307
 H          5.0665267507        1.4981683093       -2.3355766597
 H          5.9727980669        0.8490090982        1.4892714300
 H          6.1763842361        2.4133254700        2.2499490798
 H          4.2294037987        3.0591382228        1.2346300692
 H          5.0494029419        2.9530165759       -0.3298247836
 O          2.9257915605        1.0794776793        1.1445795631
 C          2.0432818377        0.0108687933        1.0771235839
 O          1.1902411751        0.0034878648        1.9861289569
 O          3.3553594578       -1.5657910117       -1.9043601991
 C          1.2480999565       -2.0847656952       -0.0870724858
 C         -0.1056528468       -1.5428936476       -0.4728497678
 C         -0.3629095603       -1.2434888375       -1.8081056790
 C         -1.5668616212       -0.6795647283       -2.1851706816
 C         -2.5359633839       -0.3921685956       -1.2390908669
 C         -2.2810503628       -0.6695080380        0.0965491552
 C         -1.0803993315       -1.2591908939        0.4705151021
 H         -0.8916534529       -1.4573163666        1.5136231124
 N         -3.2514125689       -0.3694446713        1.0681897601
 S         -3.9903250226        1.1365588541        1.0145087063
 O         -3.1343580275        2.1401047571        0.4246352754
 O         -4.4389028705        1.3863104079        2.3673594567
 C         -5.4158665978        0.8639339514       -0.0197093318
 C         -6.2508796790       -0.1930860836        0.2859688547
 C         -7.3705697237       -0.4105699803       -0.5007961027
 C         -7.6376344335        0.4296697482       -1.5715144240
 C         -6.7919245713        1.4887401613       -1.8631893927
 C         -5.6691752670        1.7109082566       -1.0807732844
 H         -4.9794528670        2.5173304453       -1.2737200292
 H         -7.0007358429        2.1413882110       -2.6956450114
 H         -8.5098592732        0.2581756116       -2.1823530585
 H         -8.0302713154       -1.2334269987       -0.2772645372
 H         -6.0089908289       -0.8208359719        1.1271182273
 H         -2.9500997993       -0.5803390706        2.0090932397
 H         -3.4718607042        0.0601641339       -1.5237701574
 H         -1.7538027876       -0.4572611445       -3.2247789267
 H          0.4028137762       -1.4454819557       -2.5440360662
 H          1.6305452530       -2.6771273435       -0.9289673577
 C          1.2329059073       -2.9538756688        1.1525608493
 C          0.6232342972       -4.3209929474        1.0796216940
 C          2.1084821635       -4.1684935846        1.2052051130
 H          2.5769312260       -4.4240557683        2.1438984219
 H          2.7199233388       -4.3811808459        0.3406341604
 H          0.0696701420       -4.6854722255        1.9313419685
 H          0.2248007295       -4.6361169315        0.1272883341
 H          1.1144678768       -2.3926698449        2.0714475228
