  62
        -98.93192836
 C         -2.4154573416       -0.9081564745        0.6129849165
 C         -3.4635834955       -0.8931318524       -0.3365800185
 C         -4.6664549481       -0.1140886160        0.0204006673
 C         -4.7027788997        0.5663778304        1.1802560975
 C         -5.7904088594        1.4075196693        1.8157637881
 C         -7.0094460675        1.8491688498        1.0104799390
 C         -6.7119084749        2.8610740685       -0.0958838006
 H         -7.6261108875        3.0164900119       -0.6728797153
 H         -6.4458077489        3.8140527157        0.3683935527
 C         -5.5807247718        2.4833445213       -1.0490098790
 H         -5.4656672965        3.2967787892       -1.7706620585
 H         -4.6420253441        2.4113227486       -0.4956315483
 C         -5.7927248149        1.1918767931       -1.8359887010
 H         -6.7424187285        1.2396024446       -2.3725698845
 H         -4.9922910052        1.1235808544       -2.5777990978
 C         -5.7642120590       -0.1017261614       -1.0047811504
 H         -6.7272744376       -0.2934850032       -0.5381113941
 H         -5.5579666438       -0.9330843165       -1.6850993760
 H         -7.6931408526        2.3264323270        1.7178333274
 H         -7.5282079358        0.9841239622        0.6080495377
 H         -6.1377062054        0.8341133630        2.6824166040
 H         -5.2860004520        2.2928499552        2.2160057084
 O         -3.6535702809        0.5448499664        2.0543079440
 C         -2.5066404231       -0.1806874163        1.8021623847
 O         -1.6472406630       -0.1051555407        2.7039913780
 H          1.2654862691       -0.6683392525        1.1407835077
 C          1.0524316026       -0.4815664926        0.0965260937
 C         -0.1472999890       -0.9247809137       -0.4410066615
 C         -0.4148474511       -0.6653391002       -1.7808399127
 C          0.4982244052        0.0279279460       -2.5544697255
 C          1.6916716735        0.4734894234       -2.0142192973
 C          1.9695641243        0.2182077407       -0.6782787675
 N          3.1721180896        0.6831336352       -0.1169936643
 S          4.5749197459        0.5056930340       -1.0431723950
 O          4.6683260101        1.6252993579       -1.9464537494
 O          4.6000526702       -0.8033181326       -1.6556606551
 C          5.8363798294        0.6300335337        0.2090241991
 C          6.2687938237        1.8821299253        0.6026794272
 C          7.2336450103        1.9757140681        1.5930638019
 C          7.7461454443        0.8232669932        2.1701629677
 C          7.3029716872       -0.4264038536        1.7636334443
 C          6.3374815136       -0.5273313725        0.7744932498
 H          5.9713390778       -1.4777464775        0.4202435422
 H          7.7056093279       -1.3205099812        2.2118003496
 H          8.4981394648        0.8989961666        2.9396157817
 H          7.5831909011        2.9449101499        1.9103213676
 H          5.8494472535        2.7492246670        0.1196821312
 H          3.3078241438        0.3520626331        0.8282723968
 H          2.4133260646        1.0094292730       -2.6099954280
 H          0.2792013162        0.2244977134       -3.5935442498
 H         -1.3484943731       -1.0010428786       -2.2050351717
 C         -1.1219709350       -1.6858261860        0.4268695145
 H         -0.6823529606       -1.7619242800        1.4306799018
 C         -1.3370781615       -3.0898072926       -0.1043161382
 C         -0.2725617445       -4.1188527268        0.1222377442
 C         -1.5734403551       -4.2098757486        0.8612235155
 H         -2.2713151334       -4.9866266720        0.5872697530
 H         -1.5800250600       -3.9692124332        1.9146234582
 H         -0.0731024602       -4.8340214852       -0.6608736128
 H          0.6050020688       -3.8177761096        0.6745888012
 H         -1.8761355225       -3.1192951417       -1.0413128975
 O         -3.4324391449       -1.5027030636       -1.4380936026
