  62
        -98.94080298
 C         -2.6586717198       -0.1125353797        0.3589303600
 C         -2.7043228801       -1.1264173702       -0.6321109994
 C         -2.1437027104       -2.4287083602       -0.2646875586
 C         -1.6075486905       -2.5963296296        0.9571084615
 C         -0.9521356608       -3.8485027194        1.4729889023
 C          0.5108879692       -3.9933742900        1.0308331424
 C          0.7110732291       -4.4105056909       -0.4272963374
 H          0.0819293789       -5.2737198909       -0.6488305769
 H          1.7506812791       -4.7289755913       -0.5273249771
 C          0.4409405894       -3.2942664115       -1.4457866980
 H          1.2356253795       -3.2903741521       -2.1962418480
 H          0.4739365097       -2.3258265112       -0.9413762786
 C         -0.8824193806       -3.4218512316       -2.2005624480
 H         -0.8564220008       -4.3083718420       -2.8393510375
 H         -0.9932175303       -2.5441976419       -2.8425675085
 C         -2.1234661806       -3.5088204408       -1.3044827880
 H         -2.1766582309       -4.4885691605       -0.8296362274
 H         -3.0072370606       -3.3752591909       -1.9339347481
 H          0.9731070090       -4.7481195598        1.6719855328
 H          1.0207795394       -3.0423474601        1.2076690819
 H         -1.5216639910       -4.7231459595        1.1562319927
 H         -0.9811166208       -3.7887084888        2.5632007322
 O         -1.6191923803       -1.6171883990        1.8975127909
 C         -2.1132909899       -0.3462905091        1.6221076202
 O         -2.0298305398        0.4365244815        2.5876294297
 O         -3.2010599900       -0.9456535908       -1.7776613295
 C         -3.1098040795        1.2691009702       -0.0848117208
 C         -1.9566986293        1.9171276195       -0.8124451211
 C         -2.1218202991        2.5083878888       -2.0588396115
 C         -1.0308863090        3.0097540881       -2.7481134317
 C          0.2442468910        2.9012492481       -2.2240866516
 C          0.4178430908        2.3196107388       -0.9722627713
 C         -0.6826952993        1.8639287195       -0.2641679110
 H         -0.5311684495        1.4251694500        0.7110764992
 N          1.6923187707        2.1772556988       -0.4030497911
 S          1.9791172504        0.8004433693        0.5409642497
 O          1.2530514701       -0.3303205908        0.0142095503
 O          1.7475152404        1.1408004302        1.9225366795
 C          3.7290992003        0.5794525787        0.2742087499
 C          4.6115301805        1.4215021689        0.9250851294
 C          5.9703670305        1.2715815584        0.6986014195
 C          6.4218610803        0.2874389878       -0.1686636999
 C          5.5246854101       -0.5517740723       -0.8117356694
 C          4.1636974501       -0.4055251519       -0.5917293096
 H          3.4277964900       -1.0369002520       -1.0637568892
 H          5.8779791199       -1.3184797528       -1.4821808790
 H          7.4800486703        0.1721283274       -0.3420684298
 H          6.6709213506        1.9201680985        1.1991943192
 H          4.2138919107        2.1626655894        1.5987776189
 H          2.4441480008        2.3581474483       -1.0538448612
 H          1.0995361811        3.2577775176       -2.7775432218
 H         -1.1719601588        3.4646709976       -3.7167433020
 H         -3.1075622391        2.5476770888       -2.4984519415
 H         -3.9056742595        1.0907395400       -0.8265740507
 C         -3.6976945393        2.1353596310        1.0155522287
 C         -2.9697211990        3.2937249611        1.6214820280
 C         -4.1307266490        3.5387895109        0.7076909479
 H         -5.0558085189        3.8983551414        1.1316485976
 H         -3.9153379388        3.9198667503       -0.2790696923
 H         -3.0905011190        3.4586902418        2.6811583180
 H         -1.9758317890        3.5137022207        1.2631170380
 H         -4.3295935195        1.5636788015        1.6870313890
