  62
        -98.94437634
 C          1.9159600800        1.0626062114       -0.2337348782
 C          2.4385286305       -0.0825621678       -0.8810930793
 C          3.8960872405       -0.2553303775       -0.7915579190
 C          4.6327652300        0.6688296719       -0.1482256676
 C          6.1149722100        0.5840228020        0.0710153528
 C          6.4378260896       -0.1152452494        1.3991555122
 C          5.6936559498       -1.4356251498        1.5991792504
 H          6.0216780896       -1.8525064708        2.5538718801
 H          4.6238024398       -1.2331660701        1.6874324002
 C          5.9211638705       -2.4673694585        0.4855946193
 H          6.1049635706       -3.4417991990        0.9430246983
 H          6.8120269107       -2.2051284976       -0.0862861100
 C          4.7390204009       -2.6404284277       -0.4701358713
 H          3.8242400207       -2.8124834785        0.1030583582
 H          4.9184075713       -3.5335580270       -1.0747253022
 C          4.4874909010       -1.4765756467       -1.4371995401
 H          5.4115825711       -1.2276416559       -1.9629722695
 H          3.7513945614       -1.8109755560       -2.1743124808
 H          7.5140234996       -0.2916611292        1.4438219624
 H          6.1691677192        0.5563571996        2.2178256728
 H          6.5699772704        0.0437686430       -0.7567329376
 H          6.5178655097        1.5978553121        0.0969845841
 O          4.0966721595        1.7740899711        0.4298351234
 C          2.7287583895        1.9914719508        0.4154579031
 O          2.3643072190        3.0275988201        1.0072482942
 H         -1.7633730394       -0.0713881483       -1.2504330509
 C         -1.4014005697       -0.4526267693       -0.3107790312
 C         -0.3122958200        0.1265217703        0.3202627399
 C          0.1206675396       -0.4129183310        1.5297828094
 C         -0.5006923903       -1.5184600618        2.0750488380
 C         -1.5818001099       -2.1006945413        1.4359300569
 C         -2.0314676996       -1.5633218500        0.2371097873
 N         -3.1245019692       -2.1351349395       -0.4346450937
 S         -4.3285045892       -1.1477787491       -1.0434994931
 O         -5.4651796990       -2.0255420792       -1.2152878145
 O         -3.8703973189       -0.4634577177       -2.2247753921
 C         -4.6439832200        0.0158503893        0.2703022381
 C         -5.3316996003       -0.4291367921        1.3826935174
 C         -5.5247220909        0.4399957967        2.4436550683
 C         -5.0220973712        1.7308814569        2.3779940199
 C         -4.3371735809        2.1628722283        1.2531172006
 C         -4.1438799702        1.2987380995        0.1868093997
 H         -3.6197826800        1.5978637506       -0.7057277897
 H         -3.9492642811        3.1679202984        1.2028577419
 H         -5.1668308516        2.4058527559        3.2067755806
 H         -6.0618181712        0.1096068656        3.3180698877
 H         -5.7157830001       -1.4363301422        1.3914464561
 H         -3.5193132292       -2.9416268902        0.0268004452
 H         -2.0647751699       -2.9699814519        1.8556414257
 H         -0.1438505506       -1.9309154827        3.0067998776
 H          0.9654901293        0.0423163686        2.0292568703
 C          0.4195001999        1.3196706111       -0.2439079585
 H          0.2543764695        2.1745902503        0.4282694724
 C         -0.0296887597        1.7049691225       -1.6378593482
 C         -1.1644875498        2.6638417925       -1.8295355676
 C          0.2394380502        3.0949445131       -2.1278502666
 H          0.5337278306        3.2308708944       -3.1577143763
 H          0.7220110898        3.7760069825       -1.4416977656
 H         -1.6292977402        3.0674472914       -0.9425308073
 H         -1.8430445795        2.5021374132       -2.6544199080
 H          0.0839817508        0.8975591833       -2.3527232891
 O          1.7282094709       -0.9194292372       -1.4971437105
