  62
        -98.94354462
 C         -1.9689547306       -1.4378291094        0.1745811402
 C         -2.1668220999       -0.4724835893        1.1958342402
 C         -3.1423250993        0.5841228913        0.9117229904
 C         -3.7819333995        0.5966323817       -0.2719003595
 C         -4.8411634690        1.5767034024       -0.6979545292
 C         -4.2899765283        2.8936202420       -1.2605798793
 C         -3.6821838375        3.8386017717       -0.2236206095
 H         -3.5437906070        4.8044211016       -0.7135973195
 H         -4.3916228173        3.9872168921        0.5910751307
 C         -2.3323801477        3.3746043409        0.3411781903
 H         -1.9037048283        2.6134107906       -0.3145777098
 H         -1.6401414272        4.2189843804        0.3531621801
 C         -2.3927904478        2.8208610609        1.7648931503
 H         -2.6804440971        3.6159257510        2.4566673303
 H         -1.3932994379        2.4760819003        2.0420719001
 C         -3.3611125584        1.6453649115        1.9476774205
 H         -3.1749775285        1.1968544513        2.9267986104
 H         -4.3918483082        1.9985679321        1.9168410707
 H         -3.5451975386        2.6618155816       -2.0251753095
 H         -5.1190754681        3.4101301025       -1.7497089592
 H         -5.4217135694        1.0838186827       -1.4807881591
 H         -5.5027396387        1.7876284028        0.1429771109
 O         -3.5446207302       -0.3284024384       -1.2365306495
 C         -2.6252103208       -1.3530320190       -1.0542331197
 O         -2.5089490015       -2.0963001490       -2.0466751997
 O         -1.5646699197       -0.5047428896        2.3030443101
 C         -0.9837906413       -2.5574605700        0.4699702200
 C          0.3571787688       -2.2314178008       -0.1422551503
 C          0.6159706784       -2.4075977409       -1.4970924503
 C          1.8525912185       -2.0745614017       -2.0202575406
 C          2.8520066190       -1.5616026423       -1.2116485408
 C          2.5972778294       -1.3652318421        0.1391556493
 C          1.3555247993       -1.6999971114        0.6628785095
 H          1.1536932996       -1.5352479613        1.7128638896
 N          3.6015312499       -0.8443972427        0.9747857891
 S          4.4527049606        0.5050490367        0.4735392889
 O          5.3699424602        0.1339063262       -0.5739711212
 O          5.0440312111        1.0433578264        1.6770060688
 C          3.2159620811        1.6201440675       -0.1622294308
 C          3.0545590110        1.7710924076       -1.5241979808
 C          2.0498409014        2.6041063582       -1.9904009806
 C          1.2293172520        3.2675686287       -1.0917649504
 C          1.4079733421        3.1091596386        0.2741158595
 C          2.4064983617        2.2738173180        0.7456891494
 H          2.5779549818        2.1321098779        1.8008298493
 H          0.7705752226        3.6284570390        0.9716746097
 H          0.4467670123        3.9141522792       -1.4566181603
 H          1.9093400612        2.7316348883       -3.0517281805
 H          3.7184848805        1.2454796172       -2.1903893709
 H          3.3135131901       -0.7441018126        1.9372954092
 H          3.8239891991       -1.3129527129       -1.6053896009
 H          2.0431946383       -2.2197212118       -3.0728332506
 H         -0.1650927019       -2.7839368304       -2.1384067302
 H         -0.8599323210       -2.5440007700        1.5614959900
 C         -1.4861044322       -3.9282551697        0.0667397801
 C         -0.8377020228       -5.1395084701        0.6645937099
 C         -2.2290930325       -4.7571764392        1.0692880302
 H         -3.0533553729       -5.3639769787        0.7257130404
 H         -2.3774311020       -4.3394520091        2.0546131902
 H         -0.7035850434       -6.0115814601        0.0434012199
 H         -0.0408559326       -4.9801497705        1.3755472598
 H         -1.8150283424       -3.9885065995       -0.9618205499
