  62
        -98.94799420
 C         -2.3498750187       -0.1973275865        0.1440918083
 C         -1.7605753776        0.4086495649       -0.9917017057
 C         -1.6417235033        1.8709102457       -0.9474134470
 C         -1.9765637657        2.5326942995        0.1746042310
 C         -1.8965321677        4.0204010489        0.3840506754
 C         -0.4919717899        4.5166484127        0.7546224937
 C          0.5068483804        4.5675428123       -0.4022998965
 H          0.0583756089        5.0934643204       -1.2464289413
 H          1.3583229420        5.1602057882       -0.0616018520
 C          1.0185066816        3.1939355903       -0.8583519485
 H          0.8365060913        2.4567593821       -0.0726524994
 H          2.1018798773        3.2389577674       -0.9993010288
 C          0.4135723398        2.6941448272       -2.1695217987
 H          0.8308613751        1.7075755868       -2.3792555391
 H          0.7033153619        3.3635376429       -2.9831032568
 C         -1.1155430971        2.5764074933       -2.1627783124
 H         -1.5656343744        3.5666244691       -2.2378910273
 H         -1.4137633342        1.9901543654       -3.0358786974
 H         -0.5985310428        5.5254795065        1.1610875162
 H         -0.0929861622        3.8767403633        1.5461209291
 H         -2.2435585666        4.5388562258       -0.5106145491
 H         -2.5747275095        4.2548927378        1.2075371877
 O         -2.4593772031        1.9040331345        1.2792769079
 C         -2.6508276989        0.5345419622        1.2923783307
 O         -3.0974074124        0.0872679671        2.3717204935
 O         -1.3631022205       -0.2316193421       -1.9997961954
 C         -2.5344113662       -1.7076629132        0.2036192588
 C         -1.1566014071       -2.3225423645        0.2113273173
 C         -0.6789289934       -3.2045159953       -0.7481378320
 C          0.6456375003       -3.6111367857       -0.7304350604
 C          1.5237876787       -3.1238709935        0.2211345845
 C          1.0460443989       -2.2597569882        1.1973503569
 C         -0.2870757554       -1.8942523936        1.2081753433
 H         -0.6482382122       -1.2101007238        1.9661928410
 N          1.9730335591       -1.6618785410        2.1064148262
 S          2.2857232376       -0.0709650596        1.6200161972
 O          3.2705256464        0.4399224909        2.5499155460
 O          1.0680139261        0.7069456607        1.5241778475
 C          3.0092943986       -0.3141076428        0.0167184398
 C          2.1848431164       -0.4057717615       -1.0871685687
 C          2.7544181646       -0.6551859274       -2.3259571087
 C          4.1276656276       -0.8081045455       -2.4384997511
 C          4.9413352892       -0.7126532351       -1.3192676145
 C          4.3787065598       -0.4676190087       -0.0770652695
 H          4.9674213174       -0.3853368708        0.8217623503
 H          6.0089246324       -0.8317598019       -1.4103665662
 H          4.5644992274       -1.0029401713       -3.4052360738
 H          2.1141176944       -0.7329812081       -3.1903240332
 H          1.1186694178       -0.2848443413       -0.9703532622
 H          1.6203990388       -1.6288479001        3.0546189606
 H          2.5675329915       -3.3921761467        0.2167291564
 H          1.0043037530       -4.2914222982       -1.4870544162
 H         -1.3390082056       -3.5554501355       -1.5241526190
 H         -3.0119451083       -1.9165664582        1.1717300351
 C         -3.4301495578       -2.2037372108       -0.9091133605
 C         -4.1438107160       -3.5130378038       -0.7611894439
 C         -4.9122759502       -2.2284493003       -0.6928519604
 H         -5.5572933124       -1.9665305775       -1.5179204630
 H         -5.2808302137       -1.9009298185        0.2687067960
 H         -4.2661483436       -4.1359285678       -1.6340125457
 H         -3.9942963657       -4.0623749582        0.1560832462
 H         -3.0745562409       -1.9206915376       -1.8922229141
