  62
        -98.93736569
 C          1.9290697783        1.3969096241        0.0113564699
 C          2.5648904267        0.6884357420        1.0575949613
 C          3.7730409351       -0.0611976586        0.6898010994
 C          4.2008220693       -0.0475677219       -0.5856915402
 C          5.4417233786       -0.7081837938       -1.1260116939
 C          5.4711163571       -2.2482779343       -1.0833585499
 C          6.1481661495       -2.8344702476        0.1618361381
 H          6.7446364785       -3.6987276529       -0.1373587118
 H          6.8447793118       -2.0970908274        0.5625979550
 C          5.2066847656       -3.3059394977        1.2742309923
 H          5.8038693158       -3.4585002296        2.1758138438
 H          4.7805819132       -4.2725128701        0.9952783190
 C          4.0428162254       -2.3711701654        1.6038638496
 H          3.2806686531       -2.4470320640        0.8240061000
 H          3.5752563380       -2.7211624987        2.5265815669
 C          4.4323431935       -0.8876854673        1.7555422018
 H          4.0749802397       -0.5054341714        2.7138374618
 H          5.5140548555       -0.7685486811        1.7194767247
 H          6.0306708315       -2.5771633442       -1.9605182729
 H          4.4572969337       -2.6350603646       -1.1854601300
 H          5.5145737926       -0.3803389818       -2.1650090474
 H          6.3090063760       -0.3152530807       -0.5904926818
 O          3.5475195681        0.6317652615       -1.5674334139
 C          2.3917466662        1.3527175170       -1.3040415587
 O          1.8893521468        1.8980585300       -2.3037863105
 H         -0.0885297265       -0.3401346924        0.4161494865
 C         -0.7420430668        0.2290062292       -0.2335062466
 C         -0.5011557739        1.5870545637       -0.4091525852
 C         -1.3558059031        2.3096379304       -1.2299597101
 C         -2.4003620196        1.6770496562       -1.8834570216
 C         -2.6227072458        0.3222289177       -1.7246909721
 C         -1.7869080366       -0.4059196741       -0.8860098542
 N         -2.0143868403       -1.7790250211       -0.6991688694
 S         -3.5896765331       -2.3037990669       -0.4988253244
 O         -3.4858595052       -3.5181011518        0.2799020339
 O         -4.2252766038       -2.4370249747       -1.7861868760
 C         -4.4016432444       -1.0236770968        0.4426774089
 C         -3.8782307424       -0.6875184583        1.6755344794
 C         -4.4831269169        0.3209990965        2.4076616432
 C         -5.5962685019        0.9721160077        1.8979474312
 C         -6.1131223600        0.6190660941        0.6612997396
 C         -5.5104789553       -0.3872288083       -0.0766108985
 H         -5.8763510749       -0.6911709294       -1.0438444737
 H         -6.9798198233        1.1254752572        0.2682114474
 H         -6.0625130532        1.7588327967        2.4697017506
 H         -4.0814739916        0.5965839040        3.3696238244
 H         -3.0139752727       -1.2144037014        2.0478017223
 H         -1.3898462295       -2.2158347818       -0.0380986326
 H         -3.4185023464       -0.1864033249       -2.2441404217
 H         -3.0484662406        2.2478950953       -2.5305144399
 H         -1.1977440748        3.3658464170       -1.3701645317
 C          0.6727193607        2.1914475411        0.3216748096
 H          0.5056763571        2.0574138469        1.4007111194
 C          0.8805222837        3.6637725458        0.0411152167
 C          0.0761965807        4.6887451206        0.7818129814
 C          1.5325630658        4.5148390793        1.0879760326
 H          2.2239198322        5.2812782490        0.7712616979
 H          1.8090567331        4.0362672677        2.0162202329
 H         -0.2328810483        5.5798473454        0.2569338413
 H         -0.6394540279        4.3325047679        1.5069686316
 H          1.1382908452        3.8602191321       -0.9932067511
 O          2.1424404323        0.6828133537        2.2460182917
