  62
        -98.94661109
 C         -1.1558323608       -1.3560308838        0.2557675056
 C         -1.3685593389       -0.3372673787       -0.7043664118
 C         -2.3410810924        0.7015007907       -0.3331863597
 C         -2.9004708574        0.6834761594        0.8893196709
 C         -3.9469570897        1.6449655567        1.3712996526
 C         -5.3583136121        1.1121589532        1.0850899245
 C         -5.5572057693        0.6271704018       -0.3511868313
 H         -4.9323201435       -0.2526656727       -0.5209172410
 H         -6.5965186296        0.3042369719       -0.4434023665
 C         -5.2523450626        1.6795358441       -1.4265476200
 H         -6.0474952485        1.6549352078       -2.1747256226
 H         -5.2578847556        2.6755652100       -0.9824493716
 C         -3.9333799805        1.4634421299       -2.1713863553
 H         -3.8863175162        0.4361254950       -2.5414255097
 H         -3.9233319189        2.1246320476       -3.0419945618
 C         -2.6600881324        1.7471041972       -1.3639654318
 H         -1.8161081342        1.7510978849       -2.0593664777
 H         -2.7321927268        2.7340653485       -0.9046399142
 H         -6.0776861630        1.9026242599        1.3067298044
 H         -5.5561667761        0.2749089596        1.7584261009
 H         -3.8303157786        1.7722956859        2.4489325595
 H         -3.8084590168        2.6066969151        0.8811858539
 O         -2.6021447070       -0.2565363397        1.8203051637
 C         -1.7550335110       -1.3066736795        1.5196437515
 O         -1.6103630769       -2.1263091804        2.4481985563
 H          1.2330990877       -0.8233132869       -1.4037368621
 C          1.8040565616       -1.2926029462       -0.6161354784
 C          1.1867204403       -2.2234767379        0.2074683569
 C          1.9291754212       -2.7985311060        1.2318542586
 C          3.2559373453       -2.4516515840        1.4243308355
 C          3.8657239605       -1.5168721083        0.6061349336
 C          3.1266122156       -0.9310635694       -0.4127506954
 N          3.7223805222        0.0745752878       -1.2126410934
 S          3.9393489055        1.5316857470       -0.4148944910
 O          4.3518901834        2.4812202111       -1.4226101321
 O          4.8543065877        1.3219500123        0.6779053830
 C          2.3314048138        1.9777228003        0.2201881008
 C          1.8630471778        1.3529473805        1.3592803976
 C          0.5994849348        1.6751283725        1.8269662172
 C         -0.1650004137        2.6190095415        1.1594573655
 C          0.3181928732        3.2346006536        0.0155836144
 C          1.5738445132        2.9045691123       -0.4664772561
 H          1.9869993397        3.3586688655       -1.3529330229
 H         -0.2799524169        3.9665791034       -0.5025617892
 H         -1.1422623141        2.8739106694        1.5375660343
 H          0.2131628940        1.1834323974        2.7065900899
 H          2.4879713521        0.6363462873        1.8672703105
 H          3.1991531835        0.2505538399       -2.0604268088
 H          4.8877979312       -1.2110470703        0.7590283387
 H          3.8193702649       -2.9085327264        2.2237574635
 H          1.4540228198       -3.5097651321        1.8918260047
 C         -0.2688678891       -2.5692197861        0.0119999651
 H         -0.5455381539       -3.2967415777        0.7865427500
 C         -0.5020260060       -3.2049295175       -1.3452584705
 C         -0.1160403082       -4.6373286949       -1.5515701082
 C         -1.5631863237       -4.2516951360       -1.4912852615
 H         -2.1435353126       -4.2739311338       -2.4015285740
 H         -2.1263158833       -4.5203298508       -0.6090471344
 H          0.3001922702       -4.9267617664       -2.5042291533
 H          0.3013564313       -5.1695078190       -0.7101395773
 H         -0.3630992345       -2.5215473618       -2.1723280237
 O         -0.7970901095       -0.2772713728       -1.8264938177
