  62
        -98.93961903
 C         -2.3948258267        0.3836988573        0.3385302876
 C         -3.5966541604        1.0173331060       -0.0627389253
 C         -4.6171959945        0.1464164334       -0.6595382381
 C         -4.3486946154       -1.1617054311       -0.8253183646
 C         -5.3116017026       -2.1711812414       -1.3785008298
 C         -6.1353889125       -2.8249255879       -0.2601138086
 C         -6.7625290971       -1.8242989141        0.7105868758
 H         -7.3434729994       -2.3964638432        1.4371555137
 H         -5.9678394690       -1.3169595930        1.2622611243
 C         -7.6655482491       -0.7759057051        0.0459108558
 H         -8.5810607751       -0.6791910573        0.6332830596
 H         -7.9542337453       -1.1133661570       -0.9501462544
 C         -7.0497800179        0.6211246477       -0.0516467414
 H         -6.6746726767        0.9254185928        0.9287493035
 H         -7.8404524701        1.3224734432       -0.3312841283
 C         -5.9157298983        0.7807453429       -1.0722085269
 H         -6.2386328096        0.4009675742       -2.0437209785
 H         -5.7075830759        1.8499402198       -1.1737567477
 H         -5.4807786649       -3.4893483858        0.3085304524
 H         -6.9193189882       -3.4306298447       -0.7183147159
 H         -4.7396133496       -2.9433798913       -1.8956590240
 H         -5.9717818674       -1.6825597482       -2.0924660707
 O         -3.1711921476       -1.7277751780       -0.4597232686
 C         -2.1674177600       -0.9778095022        0.1366384129
 O         -1.1518724100       -1.6341401429        0.4340012586
 O         -3.8052583871        2.2530553628        0.0725396872
 C         -1.3026908952        1.2369765506        0.9620579701
 C         -0.1359797358        1.2889377737        0.0067656660
 C         -0.2547006095        2.0573984252       -1.1486271721
 C          0.7710790727        2.1063665955       -2.0727458778
 C          1.9336247835        1.3824932255       -1.8712681708
 C          2.0602338530        0.6096992911       -0.7253423691
 C          1.0347634451        0.5775801157        0.2128392937
 H          1.1431486494       -0.0330605576        1.0953259144
 N          3.2231815730       -0.1580095799       -0.5265315809
 S          4.7119219967        0.5916916038       -0.7923070697
 O          4.7619025011        1.8598073965       -0.0977274642
 O          4.9544806355        0.6453217950       -2.2120993254
 C          5.8190352209       -0.5794557908       -0.0330729789
 C          6.2085276596       -0.3900839148        1.2792764348
 C          7.0480808093       -1.3212885806        1.8700478630
 C          7.4789862432       -2.4210426710        1.1433662801
 C          7.0793357621       -2.5972457858       -0.1730657766
 C          6.2406388100       -1.6696025043       -0.7700433393
 H          5.9108503413       -1.7606670022       -1.7917549621
 H          7.4182159825       -3.4525019083       -0.7351445847
 H          8.1326416654       -3.1440011513        1.6053123292
 H          7.3625451135       -1.1859825379        2.8923912353
 H          5.8577411051        0.4846587201        1.8032585796
 H          3.2123237575       -0.6300055757        0.3675122894
 H          2.7422319843        1.4104097995       -2.5836164231
 H          0.6666002533        2.7106627560       -2.9616324454
 H         -1.1679512532        2.6129033003       -1.3130746952
 H         -1.7282263189        2.2477653925        1.0307101345
 C         -0.9455042298        0.7632908003        2.3545933834
 C         -0.1827150546        1.6729945609        3.2694415649
 C         -1.6288936164        1.3837101219        3.5346239888
 H         -1.8838829446        0.7522195940        4.3724533906
 H         -2.3507879939        2.1634094970        3.3405520926
 H          0.5560727876        1.2430274309        3.9284998193
 H          0.0798987878        2.6502773802        2.8931324403
 H         -0.7404076549       -0.2994364847        2.4042963358
