  62
        -98.94481642
 C         -1.9399098463        0.5901881354        0.5847398139
 C         -3.0260060091        1.3322031844        0.0596885172
 C         -4.3521054562        0.7260615277        0.2180664797
 C         -4.4734501524       -0.4571729202        0.8470486900
 C         -5.7605796226       -1.1900387380        1.1126579591
 C         -6.2443224116       -2.0493751169       -0.0634371758
 C         -6.8032631222       -1.2676759178       -1.2529392272
 H         -7.2998442551       -1.9890183686       -1.9049847615
 H         -7.5635578742       -0.5692203588       -0.9019270021
 C         -5.7439398646       -0.5128306267       -2.0680813463
 H         -4.7532954731       -0.9088256945       -1.8324631530
 H         -5.9125404389       -0.6865369826       -3.1332541718
 C         -5.7371158829        1.0004756730       -1.8514699238
 H         -4.9283260493        1.4284426225       -2.4490447902
 H         -6.6786576283        1.4255253730       -2.2060629770
 C         -5.5264771711        1.4291716585       -0.3932729128
 H         -6.4283696896        1.2402750790        0.1884211731
 H         -5.3170131517        2.5014820587       -0.3776478207
 H         -5.4174454914       -2.6805511584       -0.3973778709
 H         -7.0313250798       -2.7058117116        0.3150178615
 H         -5.5728281335       -1.8470997122        1.9646431380
 H         -6.5382368155       -0.4772046341        1.3884400198
 O         -3.4058201694       -1.1342461746        1.3471268523
 C         -2.1138084701       -0.6433377353        1.2121743583
 O         -1.2354898350       -1.3850533676        1.6915615265
 O         -2.8925840970        2.4471662424       -0.5116626605
 C         -0.5374124160        1.1581232659        0.4443634056
 C          0.2884518589        0.2285948241       -0.4088505741
 C         -0.0835132910        0.0503514705       -1.7402450372
 C          0.6083151921       -0.8214700384       -2.5568854758
 C          1.6926772519       -1.5285446599       -2.0658213650
 C          2.0722447070       -1.3596282521       -0.7401086582
 C          1.3748300575       -0.4792651354        0.0784373631
 H          1.6770015642       -0.3867667700        1.1073285298
 N          3.1509536031       -2.0884331500       -0.2157064778
 S          4.3009194138       -1.3718163887        0.7596482149
 O          5.3709996262       -2.3425930285        0.8247906828
 O          3.7247559391       -0.9698759315        2.0165168778
 C          4.8411372925        0.0556026260       -0.1632994516
 C          5.8371159075       -0.1111854942       -1.1061915720
 C          6.2272137827        0.9764653967       -1.8701287606
 C          5.6111694132        2.2051335149       -1.6854147435
 C          4.6118282590        2.3553593421       -0.7365269817
 C          4.2194993814        1.2719285892        0.0340993407
 H          3.4494807424        1.3533448090        0.7830782169
 H          4.1346819676        3.3115333929       -0.5920090167
 H          5.9129130299        3.0516215591       -2.2818815104
 H          7.0071501948        0.8635443675       -2.6057978643
 H          6.2964670023       -1.0809469651       -1.2091178925
 H          3.5854723639       -2.7203556428       -0.8720472550
 H          2.2314412793       -2.2168457713       -2.6992555049
 H          0.3052678679       -0.9520842271       -3.5847453109
 H         -0.9337327806        0.6004337181       -2.1198402593
 H         -0.6645857383        2.1039226483       -0.1021271037
 C          0.0620007780        1.4593101697        1.8005024338
 C          1.1248351077        2.5076165640        1.9305758586
 C         -0.2538623525        2.7683368042        2.4574267824
 H         -0.4058376061        2.7846197785        3.5262543523
 H         -0.8870587129        3.4557553456        1.9156884458
 H          1.9232626216        2.3455875707        2.6398290096
 H          1.4238622520        3.0267420507        1.0323150982
 H          0.1247643848        0.5873320616        2.4418663087
