  62
        -98.93866198
 C          2.1301944908        0.9244573827       -0.0023575434
 C          2.8675219039        0.2459289126        0.9948509399
 C          3.5944511903       -0.9605568302        0.5661883139
 C          3.4928111560       -1.3713968410       -0.7096356668
 C          4.1059440528       -2.5897307415       -1.3541514636
 C          5.5638510528       -2.9197655537       -1.0050546510
 C          6.4590801421       -1.7016560809       -0.7346335930
 H          7.3631568472       -1.7850750120       -1.3404897412
 H          5.9471770306       -0.7866964591       -1.0375848999
 C          6.8849014369       -1.5875299023        0.7310754928
 H          7.1593608388       -2.5803735846        1.0940356307
 H          7.7772985052       -0.9599052798        0.7894470692
 C          5.8438384288       -0.9814376905        1.6712649084
 H          5.7286340434        0.0847580639        1.4583926403
 H          6.2232017936       -1.0651201312        2.6924806531
 C          4.4467509684       -1.6205729072        1.6120138994
 H          3.9505091115       -1.4320876558        2.5681085615
 H          4.5100594956       -2.6954889030        1.4607741812
 H          5.9665086811       -3.4886371390       -1.8447916346
 H          5.5906268389       -3.5795157012       -0.1388766569
 H          3.4759549054       -3.4523955142       -1.1169539110
 H          4.0170147360       -2.4153589377       -2.4292094357
 O          2.7395478421       -0.7058446392       -1.6312650093
 C          2.0468743841        0.4517329099       -1.3111881346
 O          1.4126076810        0.9499877142       -2.2597499816
 O          2.9054169997        0.6219829952        2.1978643970
 C          1.3674494911        2.1829981002        0.3709429714
 C         -0.1078596401        1.9735098760        0.1332340800
 C         -0.9043411414        2.8496579114       -0.5911089338
 C         -2.2469672297        2.5748829856       -0.7883222031
 C         -2.8248044304        1.4340401809       -0.2633667497
 C         -2.0385967738        0.5538268725        0.4691467250
 C         -0.6954486531        0.8316052408        0.6650528049
 H         -0.0821000671        0.1409329423        1.2317358416
 N         -2.6192661930       -0.6033729996        1.0212234702
 S         -3.4808772118       -1.6118476657       -0.0112456738
 O         -3.4266789669       -2.9182699864        0.6094989196
 O         -2.9970735291       -1.5251117107       -1.3697675192
 C         -5.1474927654       -0.9927679965        0.0895596872
 C         -5.8155041898       -0.6232881963       -1.0613402950
 C         -7.1149211641       -0.1507984699       -0.9592367932
 C         -7.7197268213       -0.0578910378        0.2848845503
 C         -7.0356544897       -0.4354733340        1.4309417089
 C         -5.7371524912       -0.9097361100        1.3358879459
 H         -5.1720621084       -1.2167897930        2.1999680289
 H         -7.5091688091       -0.3615064079        2.3966087456
 H         -8.7302527775        0.3111630093        0.3616713941
 H         -7.6479323712        0.1427940740       -1.8492590515
 H         -5.3016231556       -0.7073635052       -2.0058362971
 H         -1.9753337808       -1.1463276949        1.5789886384
 H         -3.8681537496        1.2145455474       -0.4205724634
 H         -2.8522300183        3.2602395005       -1.3617174285
 H         -0.4724795939        3.7419426613       -1.0130915602
 H          1.5245180732        2.3091480411        1.4526761092
 C          1.9393414892        3.3858817340       -0.3483021054
 C          1.8170353807        4.7524432946        0.2547649839
 C          3.1471998411        4.0635807038        0.2236799737
 H          3.9038933129        4.4276959564       -0.4549848072
 H          3.5438650933        3.6715247198        1.1489503023
 H          1.6621929753        5.5942695024       -0.4028916332
 H          1.3119239370        4.8350176789        1.2050538950
 H          1.8824618421        3.2914923334       -1.4269603476
