  62
        -98.94762700
 C          1.8447639292        1.3228769691       -0.1048554128
 C          2.9413340619        0.5868426616        0.4083008443
 C          3.2354472938       -0.6858921572       -0.2567815943
 C          2.4744403299       -1.0891883580       -1.2899636807
 C          2.6281174843       -2.3744538655       -2.0557109131
 C          1.9275823596       -3.5625812332       -1.3818653062
 C          2.6364592146       -4.1122080919       -0.1432796766
 H          2.1802440733       -5.0777471901        0.0844385399
 H          3.6877584507       -4.2922249073       -0.3729450268
 C          2.5218784744       -3.2135585438        1.0961866127
 H          2.2704008195       -3.8258673057        1.9661450380
 H          1.6942633320       -2.5120387566        0.9597120194
 C          3.7953492795       -2.4403485903        1.4421785385
 H          3.5835725322       -1.8062029751        2.3071542616
 H          4.5831264859       -3.1430128545        1.7247537420
 C          4.3238440852       -1.5429758901        0.3154953958
 H          5.0846063793       -0.8801065857        0.7358998648
 H          4.7806937307       -2.1501300327       -0.4657967963
 H          1.8526260209       -4.3642370994       -2.1206757926
 H          0.9133452203       -3.2591935330       -1.1080307839
 H          2.1707837785       -2.2131621730       -3.0342436275
 H          3.6854164144       -2.6010975718       -2.1964596851
 O          1.4500218857       -0.3436812736       -1.7737036959
 C          1.0705327585        0.8398150585       -1.1605510155
 O          0.0545489107        1.3597750711       -1.6616493977
 H          0.1773777073        0.4865326748        1.7099670064
 C         -0.5222651012        1.2798370587        1.4875300730
 C         -0.0637018648        2.4714383390        0.9375952257
 C         -0.9874324901        3.4725358617        0.6697426456
 C         -2.3339634189        3.2710600442        0.9248727505
 C         -2.7906361615        2.0622483389        1.4166515131
 C         -1.8719206104        1.0550938041        1.6892313907
 N         -2.2721015875       -0.2220535616        2.1413249247
 S         -2.0495938138       -1.4774281375        1.0467645045
 O         -2.5139636478       -2.6652131897        1.7322428269
 O         -0.6850899444       -1.4983804812        0.5904592777
 C         -3.1784946351       -1.0885680169       -0.2789583400
 C         -2.8260796213       -0.1388452661       -1.2166920547
 C         -3.7555558495        0.2139854588       -2.1844598115
 C         -5.0079490881       -0.3796778400       -2.1973175256
 C         -5.3441669176       -1.3332215092       -1.2476574232
 C         -4.4243697122       -1.6875669579       -0.2747537611
 H         -4.6382893276       -2.4237239843        0.4834467576
 H         -6.3174640621       -1.7968190778       -1.2603755769
 H         -5.7245657368       -0.0978378814       -2.9526177728
 H         -3.4865205858        0.9557768492       -2.9192874730
 H         -1.8435806910        0.3082006526       -1.1957883294
 H         -3.2258461015       -0.2528306854        2.4768112875
 H         -3.8444801992        1.8924759327        1.5796082269
 H         -3.0402931333        4.0584932013        0.7106421130
 H         -0.6588100427        4.4040587892        0.2390144844
 C          1.4136502898        2.5710411201        0.6470210166
 H          1.9534923555        2.5068639285        1.6076313562
 C          1.8281685718        3.8865745754        0.0068358213
 C          2.9810387934        3.9494447967       -0.9488671678
 C          1.5861233134        4.1828293707       -1.4418318813
 H          1.3044562343        5.1883506000       -1.7183742962
 H          1.1138466576        3.4151043555       -2.0335095870
 H          3.4657584729        3.0191182358       -1.2082639019
 H          3.6553158822        4.7903427763       -0.8844246950
 H          1.7355273452        4.7202953250        0.6962098079
 O          3.6330060390        0.9714923567        1.3905048284
