  62
        -98.94525345
 C         -0.8470248507       -1.1542454904        0.2863061390
 C         -1.6150837807       -0.4955364699        1.2792488786
 C         -2.4711367002        0.6030112303        0.8135406681
 C         -2.4415462197        0.9515759900       -0.4854105620
 C         -3.3506262492        1.9630750301       -1.1202726826
 C         -4.6327034293        1.2973114704       -1.6416343027
 C         -5.3218073799        0.3912764910       -0.6212584527
 H         -4.6783805103       -0.4664893092       -0.4120470423
 H         -6.2288431599        0.0036592712       -1.0900719728
 C         -5.6857146300        1.0841396815        0.6994415470
 H         -6.7039060102        0.8017687419        0.9752416469
 H         -5.6752879396        2.1664780114        0.5659488168
 C         -4.7858117505        0.7116054715        1.8792369374
 H         -4.7260827109       -0.3764858985        1.9666486477
 H         -5.2506562506        1.0865699019        2.7950731572
 C         -3.3573800803        1.2687868109        1.8279882476
 H         -2.8928814606        1.0827841810        2.8011288478
 H         -3.3894953298        2.3479326509        1.6646353073
 H         -4.3783871293        0.6942669001       -2.5161558725
 H         -5.3239563889        2.0805495806       -1.9579197031
 H         -3.6013902791        2.7314196604       -0.3915241928
 H         -2.8279904388        2.4222760097       -1.9596742625
 O         -1.6102518197        0.3713064494       -1.3846082917
 C         -0.7833112802       -0.6862297208       -1.0274050511
 O         -0.0646224001       -1.0964390013       -1.9556006808
 H          1.7302820493       -0.4597971611        1.2526707095
 C          2.1448930592       -1.1851937314        0.5668232198
 C          1.3719041489       -2.2694284412        0.1690205199
 C          1.9264552488       -3.2004550017       -0.6991130597
 C          3.2206641390       -3.0398190123       -1.1613396194
 C          3.9825776393       -1.9531852124       -0.7750835695
 C          3.4366623694       -1.0172301420        0.0969166601
 N          4.1890221197        0.0888068678        0.5158693600
 S          3.4625083601        1.5040124182        0.9949499794
 O          4.5166019704        2.4923526378        0.8931074194
 O          2.8823171796        1.3516842688        2.3065932293
 C          2.1925323705        1.8987544784       -0.1946536110
 C          1.0463033206        2.5179554689        0.2603938285
 C          0.0994040710        2.9402786590       -0.6576787319
 C          0.3075255913        2.7225849186       -2.0103334618
 C          1.4538821612        2.0820108880       -2.4511134213
 C          2.4125668808        1.6741108079       -1.5383362209
 H          3.3151573407        1.1825385475       -1.8626507005
 H          1.6032963414        1.8974889677       -3.5025558512
 H         -0.4303209384        3.0481954186       -2.7264563021
 H         -0.7964256489        3.4314007494       -0.3124376023
 H          0.9150209604        2.6525386492        1.3228553784
 H          5.0591937499        0.2401958074        0.0286923602
 H          4.9895022594       -1.8250826829       -1.1416830793
 H          3.6388397289       -3.7668149626       -1.8407782391
 H          1.3384043586       -4.0389255515       -1.0333825696
 C         -0.0300576013       -2.3598292006        0.7127017095
 H          0.0313413385       -2.2752996503        1.8111825295
 C         -0.7068717317       -3.6908899504        0.4162547197
 C         -2.2009275517       -3.8054342199        0.3841910593
 C         -1.4107373714       -3.9611680905       -0.8785661704
 H         -1.3280758016       -4.9477101507       -1.3106098101
 H         -1.4398134509       -3.1662716907       -1.6072287206
 H         -2.7747200314       -2.9002782696        0.5216348789
 H         -2.6584594521       -4.6809005196        0.8200945895
 H         -0.1736654521       -4.5237367905        0.8644923701
 O         -1.5968128912       -0.8213839695        2.4972787887
