  62
        -98.93981419
 C          2.4916474440        1.0170159870       -0.0525445344
 C          3.6961267256        1.0623331454        0.6893739244
 C          4.8803564202        0.5142739691        0.0193898456
 C          4.7737805021        0.0258718989       -1.2299673661
 C          5.8945143287       -0.5490742494       -2.0531687495
 C          6.1836888380       -2.0287288276       -1.7654159368
 C          6.8717921104       -2.3091491297       -0.4288795780
 H          7.2078243848       -3.3476782099       -0.4534306692
 H          7.7592964529       -1.6819261314       -0.3394452248
 C          5.9732876684       -2.1111483130        0.7999606971
 H          4.9262989214       -2.0976853111        0.4874441603
 H          6.0922311105       -2.9588157065        1.4787335574
 C          6.2673353999       -0.8436920906        1.6026903415
 H          7.2695497776       -0.9064828225        2.0323763047
 H          5.5512984043       -0.7862200245        2.4266577731
 C          6.1630495145        0.4554421341        0.7929025520
 H          6.1691248464        1.2958738868        1.4913037600
 H          7.0171712246        0.5506692166        0.1229614106
 H          5.2441787379       -2.5841563325       -1.8152153754
 H          6.8297107229       -2.3962702804       -2.5660438095
 H          5.5918350894       -0.4548653631       -3.0982049091
 H          6.8010406855        0.0368455666       -1.8992565882
 O          3.6000895215        0.0163260813       -1.9159973487
 C          2.4280889444        0.4874384196       -1.3413368547
 O          1.4242587541        0.3892533394       -2.0719484096
 H         -1.3952184183        1.3893487008       -0.3087343260
 C         -1.0708860757        0.4937314227        0.1975128392
 C          0.2159176135        0.4135554991        0.7032143523
 C          0.6008343669       -0.7540412926        1.3582402756
 C         -0.2725623320       -1.8163803733        1.4828714869
 C         -1.5504563228       -1.7410699214        0.9561618668
 C         -1.9489099735       -0.5791247202        0.3112587671
 N         -3.2375763454       -0.4971755505       -0.2431735046
 S         -4.5224070688       -1.1541022502        0.6320768885
 O         -4.4463810270       -0.7375606623        2.0147313861
 O         -4.5532105058       -2.5775697667        0.4060779762
 C         -5.9100800719       -0.3837477965       -0.1774812238
 C         -6.4864696176        0.7389875180        0.3856050289
 C         -7.5493657694        1.3447314717       -0.2659832043
 C         -8.0126868056        0.8221886899       -1.4640343768
 C         -7.4238007203       -0.3056696424       -2.0165722425
 C         -6.3616686566       -0.9171094298       -1.3698638243
 H         -5.8792723147       -1.7995276515       -1.7567552503
 H         -7.7887687771       -0.7099939290       -2.9469157833
 H         -8.8399450364        1.2953537426       -1.9690659441
 H         -8.0113133595        2.2197433374        0.1621591388
 H         -6.0987928475        1.1052891979        1.3226707103
 H         -3.4529048077        0.4307846739       -0.5808215766
 H         -2.2418391597       -2.5637606083        1.0429249797
 H          0.0420475209       -2.7152213403        1.9924107362
 H          1.6002262848       -0.8168338310        1.7677308207
 C          1.2168985927        1.5370033284        0.5871209447
 H          1.5052268800        1.8410618734        1.6043614837
 C          0.7024537126        2.7510671401       -0.1560335586
 C         -0.1525703028        3.7590658100        0.5509695224
 C          1.2604238475        4.0988428470        0.1857355585
 H          1.4327658212        4.8029297915       -0.6143809754
 H          1.9977550881        4.1451574148        0.9737278119
 H         -0.9502919432        4.2362766826        0.0018502157
 H         -0.3783912453        3.5794983083        1.5913146230
 H          0.4988705394        2.5453070256       -1.2009214734
 O          3.7765925693        1.5365221584        1.8545533945
