  62
        -98.94556803
 C          1.1767439381        1.6936451523       -0.0932111131
 C          2.4659530985        1.3966875259        0.4135327510
 C          3.1453194162        0.2399579509       -0.1785578735
 C          2.5255396736       -0.4788619467       -1.1310872596
 C          3.0725522113       -1.7020969002       -1.8155173197
 C          2.8661596550       -2.9959576862       -1.0150815591
 C          3.7811424170       -3.1616460752        0.1988319072
 H          3.7044565617       -4.2035224775        0.5165453534
 H          4.8164488970       -2.9846077401       -0.0958234677
 C          3.4178195878       -2.2611013136        1.3879664893
 H          2.3895817289       -1.9056916773        1.2770548238
 H          3.4441716923       -2.8493071112        2.3088496958
 C          4.3514055899       -1.0669141183        1.5904969777
 H          3.9664897144       -0.4714072740        2.4224290364
 H          5.3468325003       -1.4248354608        1.8648551779
 C          4.4850270776       -0.1464578273        0.3709071843
 H          4.9900660101        0.7691412234        0.6896325404
 H          5.0870019079       -0.6284712695       -0.3993951252
 H          1.8262915353       -3.0458276350       -0.6803994041
 H          3.0401136166       -3.8341137172       -1.6943250800
 H          2.5420267982       -1.7936061087       -2.7658087697
 H          4.1346919098       -1.5670328960       -2.0222881421
 O          1.2940393888       -0.1560790913       -1.6023640979
 C          0.5715704674        0.9060927481       -1.0742637679
 O         -0.5646144673        1.0345097052       -1.5665613532
 O          3.0191987276        2.0639692304        1.3296847030
 C          0.3963722990        2.8125804384        0.5722240549
 C         -0.9912998020        2.3302980780        0.9212358846
 C         -2.1414198908        3.0916939034        0.7583651702
 C         -3.3803329759        2.5732712788        1.0955187203
 C         -3.5048800588        1.2798242687        1.5671562676
 C         -2.3600647078        0.5081664946        1.7281274779
 C         -1.1194772444        1.0486401209        1.4426011006
 H         -0.2416171858        0.4363702345        1.5890449447
 N         -2.4243800720       -0.8293215912        2.1693697126
 S         -1.6975120348       -1.9964096712        1.2160144076
 O         -2.2229316810       -3.2482713994        1.7263160986
 O         -0.2631306022       -1.8633382532        1.2580289000
 C         -2.2978906104       -1.7621929286       -0.4478349012
 C         -3.6363978862       -1.4921835899       -0.6534815012
 C         -4.0987136548       -1.3399210426       -1.9498061605
 C         -3.2222981863       -1.4689138588       -3.0159383200
 C         -1.8858251940       -1.7556651303       -2.7944258064
 C         -1.4182359296       -1.9028896915       -1.4989492915
 H         -0.3811080517       -2.1066155973       -1.2875127267
 H         -1.2000164993       -1.8524404509       -3.6207976018
 H         -3.5820078137       -1.3441201723       -4.0252260068
 H         -5.1392113351       -1.1177541893       -2.1246183635
 H         -4.3029867223       -1.4062377176        0.1889201547
 H         -3.3481759010       -1.1339378936        2.4426201427
 H         -4.4743874774        0.8701749423        1.8071786981
 H         -4.2640688891        3.1795316420        0.9679575006
 H         -2.0739719433        4.0879075799        0.3534667515
 H          0.9367949497        2.9929533256        1.5178719664
 C          0.4051780233        4.1317606078       -0.1880386426
 C          1.4052327020        4.3999548133       -1.2717353883
 C         -0.0413601523        4.2212268249       -1.6157136429
 H         -0.6045419727        5.0896243113       -1.9245750696
 H         -0.3450320366        3.3039326646       -2.0948060744
 H          1.8354142481        5.3883719356       -1.3362760748
 H          2.0932696948        3.6070024225       -1.5275610777
 H          0.1647117827        4.9753178530        0.4515699870
