  62
        -98.94586428
 C         -2.1963888042       -0.0899171631       -0.1116148399
 C         -2.1012430918       -1.1560687238       -1.0436042200
 C         -1.5444434807       -2.4154984111       -0.5372126257
 C         -1.1889806466       -2.5155449544        0.7558755340
 C         -0.6391013085       -3.7401045410        1.4351462566
 C          0.8772453036       -3.9173997817        1.2775721824
 C          1.3390251794       -4.3405999221       -0.1169931649
 H          2.3859640143       -4.6381171302       -0.0324719172
 H          0.7754989822       -5.2172278058       -0.4385673509
 C          1.2274189393       -3.2388972313       -1.1798724501
 H          1.1335498086       -2.2630624313       -0.6969668820
 H          2.1466412253       -3.1989851243       -1.7695807080
 C          0.0718889815       -3.4139564032       -2.1660246204
 H          0.2418636916       -4.3040417322       -2.7767053954
 H          0.0680999156       -2.5449815674       -2.8302704410
 C         -1.3133401221       -3.5269038375       -1.5147767896
 H         -2.0683528393       -3.4441499314       -2.3007474534
 H         -1.4206428194       -4.4954916097       -1.0261889044
 H          1.1906014661       -4.6849495035        1.9887439073
 H          1.3733160599       -2.9833971409        1.5512236984
 H         -1.1508457094       -4.6264144040        1.0590196912
 H         -0.8646938667       -3.6335171055        2.4983555255
 O         -1.3159262397       -1.4803629653        1.6247994791
 C         -1.7559719987       -0.2273206332        1.2059612137
 O         -1.7053315207        0.6380191810        2.0979155830
 O         -2.4635947517       -1.0568276510       -2.2466702545
 C         -2.6411949310        1.2645920668       -0.6388158393
 C         -1.5648987497        2.2735466419       -0.3246422810
 C         -1.7340422267        3.3523145700        0.5318934276
 C         -0.6703388565        4.1949860392        0.8051182410
 C          0.5754070149        3.9728960019        0.2473075723
 C          0.7549143760        2.8970297451       -0.6164896976
 C         -0.3192089687        2.0717821306       -0.9080350190
 H         -0.1797011063        1.2420117900       -1.5866936683
 N          2.0048493308        2.6593310327       -1.2145191852
 S          2.6630963776        1.1296364757       -1.3389964638
 O          3.9865771924        1.3548307278       -1.8772465348
 O          1.7967658799        0.2753611211       -2.1084934113
 C          2.8060494834        0.5274785309        0.3326814461
 C          4.0373103825        0.5585479204        0.9581228597
 C          4.1352099379        0.1212485351        2.2691896228
 C          3.0032590569       -0.3233811898        2.9359612443
 C          1.7726827913       -0.3416987802        2.2973980396
 C          1.6728515198        0.0815862028        0.9816685212
 H          0.7278194844        0.0735438474        0.4605491591
 H          0.8810649208       -0.6701048039        2.8093223778
 H          3.0762879258       -0.6585216159        3.9585187512
 H          5.0906721596        0.1320747743        2.7684659714
 H          4.8892804761        0.9132384069        0.4010637717
 H          2.7200332053        3.3245506432       -0.9581923684
 H          1.4050396662        4.6248743783        0.4751151666
 H         -0.8097789036        5.0290776513        1.4758971519
 H         -2.6896790837        3.5171940630        1.0014495386
 H         -2.6619646193        1.1288008103       -1.7336662303
 C         -4.0394172708        1.7043596039       -0.2388130036
 C         -5.1171159247        0.6920443742        0.0084850853
 C         -4.6003626081        1.5276516165        1.1390571438
 H         -5.2399666491        2.3065754188        1.5283714061
 H         -3.9743722107        1.0635956340        1.8833997617
 H         -6.1080651281        0.8895103962       -0.3720121651
 H         -4.8351411979       -0.3506798779       -0.0259950824
 H         -4.3392090348        2.6031561580       -0.7700216511
