  62
        -98.94101735
 C          1.5714535121       -0.1171923884        0.8076093530
 C          2.8722461574       -0.2435634908        1.3598758965
 C          3.9550804859        0.4240503044        0.6297861697
 C          3.6789931392        1.0948314403       -0.5028850677
 C          4.6688486476        1.8474133160       -1.3502559130
 C          5.4337927453        0.9670078589       -2.3479461549
 C          6.4898867435        0.0496485616       -1.7301913544
 H          7.0938683539       -0.3420842752       -2.5511041477
 H          7.1510849125        0.6362657340       -1.0915518824
 C          5.9156005293       -1.1305386341       -0.9339258530
 H          4.8654139542       -1.2726857099       -1.1995537643
 H          6.4418022199       -2.0471202980       -1.2102609907
 C          6.0264758780       -0.9851529423        0.5838507182
 H          7.0790851179       -0.9768525381        0.8755884415
 H          5.5559862269       -1.8561652044        1.0473151217
 C          5.3531968695        0.2725071290        1.1485104968
 H          5.2965612589        0.1717244223        2.2352501527
 H          5.9455770102        1.1556096494        0.9096020881
 H          4.7132561836        0.3669234162       -2.9084334924
 H          5.9323584618        1.6339267019       -3.0551524355
 H          4.0964119844        2.5874076123       -1.9135234115
 H          5.3774462328        2.3712254904       -0.7079551455
 O          2.4228829523        1.1793503868       -1.0111812954
 C          1.3402390915        0.5620101618       -0.3905881768
 O          0.2683526957        0.7052756301       -1.0039186181
 O          3.1171699926       -0.8862418116        2.4157139455
 C          0.4347408361       -0.8153065600        1.5334569860
 C         -0.3721176932       -1.6328328211        0.5589011851
 C          0.2059243454       -2.7617113459       -0.0158430957
 C         -0.4901423128       -3.5166268592       -0.9397330558
 C         -1.7758963251       -3.1619849646       -1.3086390857
 C         -2.3588554334       -2.0328146633       -0.7453686844
 C         -1.6591939392       -1.2808223058        0.1880608356
 H         -2.1203043424       -0.4043475820        0.6096337375
 N         -3.6360143216       -1.6246396101       -1.1386181369
 S         -4.6124085614       -0.6565181338       -0.2069033321
 O         -4.5893657301       -1.0513732437        1.1834835574
 O         -5.9065104436       -0.7314584939       -0.8530104828
 C         -3.9726575988        0.9967596126       -0.3802203960
 C         -3.2868245844        1.3598111724       -1.5209256150
 C         -2.8324776210        2.6631539349       -1.6402758710
 C         -3.0779061269        3.5788279698       -0.6294506005
 C         -3.7747931515        3.2006714967        0.5076061270
 C         -4.2261147870        1.8971310624        0.6359736611
 H         -4.7590431555        1.5563614862        1.5097967401
 H         -3.9626110573        3.9141595573        1.2942875842
 H         -2.7202038661        4.5919813087       -0.7257798712
 H         -2.2799185774        2.9550266905       -2.5186308765
 H         -3.0954204090        0.6269091038       -2.2864337663
 H         -4.1379026825       -2.2325026418       -1.7661532352
 H         -2.3199654843       -3.7465916341       -2.0346915092
 H         -0.0302809515       -4.3898589579       -1.3777880375
 H          1.2139148802       -3.0342049659        0.2666360966
 H          0.9399445960       -1.5106989632        2.2246438815
 C         -0.4210449127        0.1017251395        2.3936852683
 C          0.1875436058        1.2726035664        3.1041632628
 C         -0.7835581849        1.4970788720        1.9859413524
 H         -1.7737986497        1.8540520770        2.2291632755
 H         -0.4144262618        1.8593833103        1.0396723375
 H         -0.1293274068        1.4836382839        4.1143442694
 H          1.2327719251        1.4757251083        2.9214243559
 H         -1.1802847428       -0.4531900870        2.9381601601
