  62
        -98.94073468
 C          2.0355101725        1.4628752817        0.4082685802
 C          2.3315707677        0.8574641825       -0.8378832100
 C          3.1602125817       -0.3561046995       -0.7765574720
 C          3.5966570127       -0.8187827060        0.4080459549
 C          4.4460149270       -2.0412359621        0.6271579575
 C          3.6435486100       -3.3478095967        0.6974214772
 C          3.0781772263       -3.8354899342       -0.6373200835
 H          3.8803764544       -3.8797543175       -1.3746156879
 H          2.7224658223       -4.8560843771       -0.4827319173
 C          1.9211542260       -2.9871217595       -1.1842472328
 H          1.1128579337       -3.6428909406       -1.5172728942
 H          1.5207953720       -2.3593465224       -0.3849624564
 C          2.2966987949       -2.0910317063       -2.3642969328
 H          2.5991553862       -2.7074774266       -3.2137124079
 H          1.4098183154       -1.5251836953       -2.6624812912
 C          3.4187174486       -1.0891321720       -2.0590699187
 H          4.3790784449       -1.6022814719       -2.0180449804
 H          3.4495638801       -0.3521684369       -2.8653305923
 H          2.8303264899       -3.2176581829        1.4150407681
 H          4.3100895703       -4.1199781811        1.0879622610
 H          5.1966675125       -2.1147597767       -0.1599919149
 H          4.9560621928       -1.8984795414        1.5821549645
 O          3.3115022586       -0.1958171404        1.5813860430
 C          2.5173481544        0.9373496266        1.6119406796
 O          2.3198354340        1.3887858933        2.7569972979
 H         -0.2003403564        1.3097458995       -1.3028910536
 C         -0.8303690283        1.5972057364       -0.4740083129
 C         -0.2854027242        2.3395126179        0.5655827867
 C         -1.1060101529        2.6987581189        1.6277060078
 C         -2.4415909188        2.3334627183        1.6407341956
 C         -2.9839746106        1.6036789341        0.5984046333
 C         -2.1684078803        1.2319047469       -0.4634087736
 N         -2.7023402905        0.4828470657       -1.5259323058
 S         -3.6802096040       -0.8206456269       -1.1533485161
 O         -3.5566741280       -1.7240340262       -2.2747875005
 O         -5.0134538953       -0.3534047282       -0.8653524093
 C         -2.9710767765       -1.5471379021        0.3143359728
 C         -3.7011626110       -1.5842892720        1.4846885622
 C         -3.1260961724       -2.1385206163        2.6170033370
 C         -1.8370714132       -2.6444669264        2.5589266577
 C         -1.1180058631       -2.6034619907        1.3742152443
 C         -1.6861827019       -2.0472709382        0.2400537574
 H         -1.1508108778       -2.0035707459       -0.6955828588
 H         -0.1164679901       -3.0015580084        1.3306500213
 H         -1.3875595197       -3.0742992911        3.4401533563
 H         -3.6826739157       -2.1730249692        3.5395465561
 H         -4.7014379314       -1.1829343038        1.4847730708
 H         -2.0232070710        0.2446993993       -2.2337594418
 H         -4.0239567200        1.3206411261        0.5869547123
 H         -3.0679454938        2.6206626664        2.4712292660
 H         -0.6872777552        3.2569455175        2.4521356882
 C          1.1753998315        2.7103149164        0.5467884153
 H          1.4261294521        3.1199367363        1.5373237629
 C          1.5160937721        3.7796502557       -0.4839546320
 C          0.5708876812        4.2528769208       -1.5436935376
 C          0.8885633262        5.1383731240       -0.3789486476
 H          1.5053109217        6.0098311452       -0.5381723831
 H          0.1203981452        5.2705397202        0.3683539683
 H          0.9870853794        4.4936563607       -2.5102730813
 H         -0.4124260717        3.8124015307       -1.5939414164
 H          2.5650995004        3.7526180786       -0.7608274032
 O          1.9328294502        1.2816690058       -1.9539051945
