  62
        -98.93467127
 C         -1.7909007099       -0.4105604913        0.9339497689
 C         -2.3032655900       -0.1008912902       -0.3466447008
 C         -3.7732656801       -0.0337983503       -0.4678294607
 C         -4.5323193000       -0.3035745515        0.6095444791
 C         -6.0351810600       -0.2940261119        0.7359874591
 C         -6.8321360799       -0.9311589209       -0.4125295215
 C         -7.5882134901        0.0877701698       -1.2671229705
 H         -8.4300126800       -0.4155832099       -1.7479213810
 H         -8.0013072302        0.8548744491       -0.6086822797
 C         -6.7621031902        0.7561844210       -2.3647632999
 H         -6.5619613401        0.0324844318       -3.1578201306
 H         -7.3716948004        1.5526047713       -2.7982095191
 C         -5.4288711103        1.3521793808       -1.9085124993
 H         -5.5432901604        1.8514457198       -0.9469081688
 H         -5.1402827805        2.1179307915       -2.6317098186
 C         -4.2888620002        0.3250653609       -1.8346993203
 H         -4.5784462400       -0.5916348186       -2.3561035312
 H         -3.4124252402        0.7091422116       -2.3660475900
 H         -6.1706933198       -1.5320736302       -1.0343932321
 H         -7.5648827898       -1.6090691015        0.0283102879
 H         -6.2426460799       -0.8229838428        1.6690672286
 H         -6.3625250802        0.7380485379        0.8859009801
 O         -3.9904028899       -0.6174579826        1.8224696687
 C         -2.6234956699       -0.6671960025        2.0209883286
 O         -2.2793622498       -0.9452394736        3.1882821784
 H          2.2093157200       -0.0727302398        0.1105067091
 C          1.6702715098        0.8459300799        0.2738914000
 C          0.3828296798        0.8189737392        0.7899639400
 C         -0.2702724304        2.0289834489        1.0061569412
 C          0.3348857194        3.2278801393        0.6832529724
 C          1.6180516994        3.2494777500        0.1663759923
 C          2.2904698396        2.0504906903       -0.0287769488
 N          3.5978285796        2.0318670410       -0.5411827789
 S          4.7408690998        1.0583576705        0.2026418401
 O          4.4653041998        0.8975618591        1.6112763100
 O          6.0129887897        1.6651376611       -0.1298397593
 C          4.6302936900       -0.5123494987       -0.6280949214
 C          4.8392415402       -1.6652738394        0.1022328175
 C          4.8128936904       -2.8881920487       -0.5503356937
 C          4.5789751204       -2.9358418375       -1.9159249937
 C          4.3709204702       -1.7683709568       -2.6349483126
 C          4.4012948500       -0.5424819274       -1.9895073714
 H          4.2425822398        0.3825617031       -2.5177313805
 H          4.1852852202       -1.8098551158       -3.6961915126
 H          4.5564340006       -3.8882406570       -2.4218572747
 H          4.9723925106       -3.7964068993        0.0089665954
 H          5.0052882003       -1.5836905004        1.1644312576
 H          3.9788365094        2.9428819113       -0.7535361080
 H          2.0948588792        4.1859375603       -0.0811180168
 H         -0.1934023008        4.1557578490        0.8441986333
 H         -1.2679057704        2.0189284883        1.4237805812
 C         -0.2929263399       -0.4810723913        1.1561580888
 H         -0.1522896199       -0.6386813223        2.2365821486
 C          0.2783601303       -1.6731418505        0.4130323176
 C          1.4308112104       -2.4471100308        0.9764449968
 C          0.0565935105       -3.0442491111        0.9750576963
 H         -0.1544608694       -3.8541945304        0.2934070955
 H         -0.4755176094       -3.1122428121        1.9131298962
 H          2.1628667905       -2.8481715400        0.2915685564
 H          1.8425392204       -2.1191226517        1.9195233171
 H          0.2176424102       -1.5554386494       -0.6628348823
 O         -1.5709984201        0.1205011909       -1.3461191506
