  62
        -98.93801191
 C         -2.4574482898       -0.8772120702        0.8150518591
 C         -3.5194563499       -0.9024859395       -0.1218876909
 C         -4.5876826899        0.0867557704        0.0937434900
 C         -4.4974990498        0.9528327395        1.1184195707
 C         -5.4829289298        2.0463556393        1.4102278416
 C         -5.0906629998        3.3529377998        0.7061427127
 C         -4.7613764799        3.1823059911       -0.7769709875
 H         -4.5286752699        4.1727652914       -1.1741982566
 H         -3.8567327299        2.5773961312       -0.8750718380
 C         -5.8857579700        2.5496452918       -1.6087828779
 H         -6.8315433799        2.6235871813       -1.0706935078
 H         -5.9954121500        3.1151867525       -2.5365361874
 C         -5.6397194600        1.0920744221       -2.0025496191
 H         -4.6512697000        0.9974426725       -2.4594585693
 H         -6.3779720800        0.8153120327       -2.7600167593
 C         -5.7446821299        0.0681306811       -0.8654927500
 H         -6.6881845899        0.2043840207       -0.3332392798
 H         -5.7445707999       -0.9284851585       -1.3163718208
 H         -5.9104771298        4.0647430998        0.8187106933
 H         -4.2111017498        3.7652268494        1.2059513330
 H         -6.4732036798        1.7309681495        1.0874436114
 H         -5.4988640997        2.2158706084        2.4881539818
 O         -3.4554687598        0.9583764888        1.9883657806
 C         -2.4162777298        0.0558753589        1.8557003698
 O         -1.5235485497        0.1754544382        2.7197220699
 H          1.0362022702       -0.5438698806        1.1993112191
 C          0.8712906701       -0.6885266897        0.1394890490
 C         -0.2825086299       -1.3347618993       -0.2819019215
 C         -0.4970853300       -1.4959191482       -1.6461884316
 C          0.4268141200       -1.0193464175       -2.5588299912
 C          1.5761075100       -0.3751885878       -2.1359401808
 C          1.7966666001       -0.2031714189       -0.7758611506
 N          2.9493999701        0.4737854507       -0.3348840701
 S          4.4126598301        0.0606223013       -1.0734478106
 O          4.5084386600        0.7711010523       -2.3239847200
 O          4.5385907401       -1.3775500786       -1.1541227118
 C          5.5864269001        0.7251923303        0.0901550099
 C          6.1723436302       -0.1161859604        1.0166123592
 C          7.0684978002        0.4145822288        1.9311390196
 C          7.3589168102        1.7703335088        1.9054820307
 C          6.7626312202        2.6020738596        0.9691388214
 C          5.8667048301        2.0779046004        0.0511378010
 H          5.3864076401        2.6837020110       -0.6993614984
 H          6.9934016502        3.6549851396        0.9511550823
 H          8.0567394003        2.1807709882        2.6181557910
 H          7.5361538503       -0.2298254018        2.6580509190
 H          5.9234850502       -1.1651452904        0.9939056883
 H          3.0353383002        0.4568913499        0.6724263298
 H          2.3055586100       -0.0074645972       -2.8396502005
 H          0.2507469599       -1.1508029766       -3.6161443913
 H         -1.4018999400       -1.9753581579       -1.9850030319
 C         -1.2721095198       -1.8287650602        0.7470807082
 H         -0.7872023198       -1.7632647410        1.7304419682
 C         -1.6708037598       -3.2712503400        0.5090268470
 C         -0.6738265398       -4.3511729702        0.7991436761
 C         -1.8716564298       -4.1789742710        1.6832387863
 H         -2.6596268398       -4.9154228809        1.6350499457
 H         -1.7225964797       -3.7637358718        2.6695597666
 H          0.2896125002       -4.0512342806        1.1837873963
 H         -0.6359229799       -5.2067645297        0.1426013254
 H         -2.3284434199       -3.4071763793       -0.3384091831
 O         -3.5985137299       -1.7018723187       -1.0910762316
