  62
        -98.93868043
 C          1.5231780006        1.6514333812       -0.1299454053
 C          2.7373819991        1.3820652874        0.5596087648
 C          3.6014177551        0.3448059117       -0.0105646002
 C          3.2316977547       -0.2789627337       -1.1429268208
 C          4.0111841431       -1.3446166380       -1.8651214685
 C          3.8084992517       -2.7627119001       -1.3132767256
 C          4.4522779035       -3.0326144523        0.0470643211
 H          4.4105472682       -4.1110950315        0.2122189190
 H          5.5052346207       -2.7514257898        0.0112028780
 C          3.7679440891       -2.3236768565        1.2245040189
 H          3.6319934802       -3.0298482664        2.0465293708
 H          2.7739850325       -1.9858172859        0.9225812859
 C          4.5447072340       -1.1293448179        1.7787290954
 H          3.9569757201       -0.6815029224        2.5840043204
 H          5.4916578420       -1.4707338332        2.2027944203
 C          4.8393258949       -0.0357928016        0.7434297556
 H          5.1946208770        0.8519705148        1.2722053284
 H          5.6172261713       -0.3673113445        0.0557587730
 H          4.2395635935       -3.4565717343       -2.0387787597
 H          2.7377804148       -2.9691511578       -1.2551415988
 H          3.6725583547       -1.3283016909       -2.9035845798
 H          5.0726015297       -1.0951183528       -1.8442069475
 O          2.0783076126        0.0231661974       -1.7906779322
 C          1.1879287471        0.9753726597       -1.3041287207
 O          0.1758201387        1.0978462121       -2.0175829619
 H         -1.6495187696        1.9961440683       -0.9695682281
 C         -1.7140113831        1.7128059516        0.0665378436
 C         -0.6799684576        2.0158985536        0.9400776932
 C         -0.7959272210        1.5862974850        2.2611412712
 C         -1.9015064037        0.8747265002        2.6893550285
 C         -2.9178237551        0.5565367908        1.8057324383
 C         -2.8119084629        0.9751095807        0.4871647912
 N         -3.8092566582        0.6077134629       -0.4387606670
 S         -4.1681981366       -1.0282793274       -0.4863158400
 O         -4.5936260018       -1.2958945037       -1.8423808164
 O         -5.1356985173       -1.3311958742        0.5400843587
 C         -2.6362468325       -1.8741677021       -0.1271156200
 C         -2.5777087634       -2.7575947104        0.9319172112
 C         -1.3803281258       -3.3973745307        1.2084896504
 C         -0.2638748752       -3.1416733183        0.4273448210
 C         -0.3402995825       -2.2528681816       -0.6332333166
 C         -1.5348861233       -1.6116243724       -0.9168923544
 H         -1.5982459492       -0.9078886929       -1.7319427141
 H          0.5235400325       -2.0373304530       -1.2429152730
 H          0.6703689198       -3.6357563152        0.6460798242
 H         -1.3186230029       -4.0888858999        2.0332027310
 H         -3.4675057838       -2.9221341815        1.5176857785
 H         -3.6225651342        0.9476392707       -1.3719697275
 H         -3.7791545796       -0.0157358572        2.1102547990
 H         -1.9684781473        0.5545019343        3.7176945454
 H          0.0054866892        1.8029451674        2.9530566221
 C          0.6029701197        2.6837930997        0.5138933955
 H          1.1332283446        2.9471704041        1.4418948293
 C          0.5153038633        3.9908619957       -0.2654825302
 C         -0.1359642286        4.1902478364       -1.6004492834
 C         -0.7442072314        4.7974372935       -0.3734075246
 H         -0.6809172377        5.8678416698       -0.2463014145
 H         -1.6533588740        4.3619259244        0.0120878428
 H         -0.6132235523        3.3527739111       -2.0797545196
 H          0.3649106586        4.8458774032       -2.2992626171
 H          1.4297196496        4.5619040857       -0.1248809099
 O          3.0844045927        1.9875931909        1.6083053779
