  62
        -98.93305232
 C          2.0649343151        1.1593010253       -0.3107577142
 C          2.6887699193        0.3965151414        0.7066966401
 C          3.0100291217       -1.0083960866        0.4044293167
 C          2.6528750500       -1.5101183379       -0.7908462397
 C          2.8557039520       -2.9029497699       -1.3328523604
 C          2.5553616425       -4.0645009317       -0.3730862725
 C          3.8079788283       -4.8097368531        0.0922001832
 H          3.5220439933       -5.8222452816        0.3853334854
 H          4.4931486839       -4.8960349650       -0.7536068638
 C          4.5410973754       -4.1766320147        1.2733654485
 H          3.9490690116       -4.3132231328        2.1807830745
 H          5.4782788072       -4.7210360402        1.4103600256
 C          4.8566779128       -2.6871074489        1.1244661634
 H          5.6935039956       -2.4551692006        1.7865601601
 H          5.1824293977       -2.4650024838        0.1089782478
 C          3.6877723179       -1.7687915147        1.5116479100
 H          2.9301609124       -2.3359901785        2.0605341947
 H          4.0393060093       -0.9945649853        2.2009145650
 H          1.9866020701       -3.6982046743        0.4806308697
 H          1.9172513219       -4.7745215526       -0.9020218141
 H          2.1997924393       -2.9628428165       -2.2046187999
 H          3.8799170199       -2.9843362710       -1.7061806149
 O          2.0419441459       -0.7465077993       -1.7396472254
 C          1.7233911788        0.5872215956       -1.5358180465
 O          1.1666746654        1.1166450377       -2.5181748225
 O          2.9825414280        0.8822624310        1.8341708920
 C          1.7211278462        2.5938895091        0.0457869561
 C          0.3538150247        2.6684752034        0.6863222134
 C          0.1433696686        3.4404988686        1.8232718926
 C         -1.1030988392        3.4896167703        2.4208237069
 C         -2.1553815553        2.7512996975        1.9109862326
 C         -1.9561448947        1.9803812323        0.7711191037
 C         -0.7138201737        1.9607181484        0.1547296152
 H         -0.5828963753        1.3621803107       -0.7345794967
 N         -2.9996014869        1.2176380031        0.2231578578
 S         -2.6118809228       -0.3047299718       -0.4047409174
 O         -1.5834777610       -0.9250691794        0.4005331681
 O         -2.3452348399       -0.1739299324       -1.8146221808
 C         -4.1687143888       -1.1460992344       -0.1730023322
 C         -5.1704219947       -0.9609887381       -1.1073739062
 C         -6.3947568795       -1.5791672053       -0.9084508265
 C         -6.5964842143       -2.3671963066        0.2151066223
 C         -5.5813273534       -2.5454203286        1.1429470424
 C         -4.3549500846       -1.9283474808        0.9509953321
 H         -3.5337853661       -2.0426613127        1.6404497774
 H         -5.7393147519       -3.1611183855        2.0136594393
 H         -7.5500353219       -2.8474685199        0.3674121962
 H         -7.1849052019       -1.4447630526       -1.6293210333
 H         -4.9621887330       -0.3475166863       -1.9685059979
 H         -3.8155915113        1.1790607852        0.8191601582
 H         -3.1228161133        2.7678799367        2.3893678248
 H         -1.2520948475        4.0916495813        3.3041200579
 H          0.9705773115        3.9879404187        2.2495693300
 H          2.4568888491        2.8906228658        0.8070428271
 C          1.8075327217        3.5706463384       -1.1097831496
 C          2.0927202979        5.0147221513       -0.8296936286
 C          3.1352874838        4.1571605447       -1.4804333568
 H          3.3548375940        4.3058045464       -2.5267286407
 H          3.9917675240        3.8601655715       -0.8927753918
 H          1.5933086991        5.7604717872       -1.4285433458
 H          2.2492504385        5.3064835377        0.1974319731
 H          1.1246157393        3.3372789325       -1.9164050961
