  62
        -98.93867669
 C          2.6660109154        0.0602164680        0.2025596981
 C          2.5878689243        0.9894225554       -0.8665572621
 C          2.1654738943        2.3528216101       -0.5285123061
 C          1.8717401056        2.6463528622        0.7504587699
 C          1.4282897765        3.9931344738        1.2444684843
 C         -0.0998357196        4.1232771325        1.2622568638
 C         -0.7763968827        3.7105405007       -0.0450800972
 H         -0.6734481661        2.6306675422       -0.1737274206
 H         -1.8441365289        3.9132289169        0.0692097770
 C         -0.2520810958        4.4316298103       -1.2945383667
 H         -1.1062722960        4.7214722682       -1.9100446008
 H          0.2655815962        5.3474564864       -1.0057356757
 C          0.6653685319        3.5852033936       -2.1795343356
 H          0.2032518935        2.6096552025       -2.3520402810
 H          0.7593075175        4.0837457457       -3.1482693337
 C          2.0846500975        3.3543711525       -1.6454950333
 H          2.6856641106        2.9400031325       -2.4603571048
 H          2.5250040209        4.3070621568       -1.3427284004
 H         -0.4929119025        3.4876766290        2.0598768938
 H         -0.3516215953        5.1602452822        1.4958125173
 H          1.8051162251        4.1225881841        2.2610719391
 H          1.8603361157        4.7627287040        0.6069959063
 O          1.9428993223        1.7317077909        1.7489054833
 C          2.3024632897        0.4094077548        1.5036464507
 O          2.2769404432       -0.3042531276        2.5240972382
 O          2.8839066524        0.6869669902       -2.0551324015
 C          3.0584258713       -1.3564608866       -0.1823636688
 C          1.8669068155       -2.0681855348       -0.7756896876
 C          1.9965696208       -2.9203030708       -1.8649722556
 C          0.8866527880       -3.5540544986       -2.3985395480
 C         -0.3754331003       -3.3149232407       -1.8877837354
 C         -0.5177955815       -2.4438469207       -0.8117514460
 C          0.6023476537       -1.8631618696       -0.2408922569
 H          0.4823857975       -1.2222202933        0.6205976536
 N         -1.8021913563       -2.0994710887       -0.3456562302
 S         -2.0432262191       -0.7260121946        0.5788438594
 O         -1.3040770176        0.3557021988       -0.0174136494
 O         -1.8198253613       -0.9917472283        1.9855260998
 C         -3.7875155187       -0.4892259533        0.2951794623
 C         -4.7046750589       -0.9801940963        1.2042901501
 C         -6.0572673721       -0.8145272366        0.9497654786
 C         -6.4678668832       -0.1657120419       -0.2047978996
 C         -5.5356310731        0.3238672602       -1.1076794626
 C         -4.1824580480        0.1608280721       -0.8583021029
 H         -3.4205647470        0.5306990275       -1.5250267826
 H         -5.8572747125        0.8310938265       -2.0029987720
 H         -7.5206676942       -0.0377373029       -0.4009484130
 H         -6.7838203668       -1.1910144000        1.6517186138
 H         -4.3393036793       -1.4669584159        2.0943328722
 H         -2.4123007437       -2.8681422498       -0.1148144310
 H         -1.2467021251       -3.7805089999       -2.3198721279
 H          1.0042230116       -4.2235840367       -3.2369238528
 H          2.9713015689       -3.0720356977       -2.3049302928
 H          3.8009364766       -1.2434657765       -0.9901216358
 C          3.7176380715       -2.1474431672        0.9362122925
 C          2.9954594198       -3.1950990874        1.7234978196
 C          4.0601666117       -3.5961770188        0.7498335417
 H          5.0029284179       -3.9527700850        1.1356883736
 H          3.7437576706       -4.0747838859       -0.1639093196
 H          3.1968971302       -3.2538413103        2.7819338289
 H          1.9647268760       -3.3929018384        1.4708305597
 H          4.4327971823       -1.5451092024        1.4865257608
