  62
        -98.94459790
 C         -1.6419269721       -1.4566164583        0.1949415453
 C         -1.8148518298       -0.3847158791        1.1103742718
 C         -3.0487518199        0.3965231791        0.9771044176
 C         -3.9190890371        0.0991621669       -0.0051069639
 C         -5.2455178368        0.7666081117       -0.2501654400
 C         -5.1595554272        2.0739276311       -1.0495043692
 C         -4.5862734401        3.2669198787       -0.2839591217
 H         -4.7856521366        4.1581584297       -0.8820961120
 H         -5.1207057280        3.3822918877        0.6595138493
 C         -3.0773372939        3.1780641520       -0.0166626754
 H         -2.6411938732        2.4230512939       -0.6753893493
 H         -2.6077304008        4.1336908279       -0.2604759346
 C         -2.7105721575        2.8481643271        1.4302571066
 H         -3.0545490302        3.6505970102        2.0866789662
 H         -1.6219371068        2.7947990132        1.5132033630
 C         -3.2878759550        1.5212996501        1.9397295819
 H         -2.7860507299        1.2671982789        2.8769322973
 H         -4.3553734838        1.6272943143        2.1346145899
 H         -4.5648874344        1.8961462498       -1.9482961782
 H         -6.1736326628        2.3270840241       -1.3670153231
 H         -5.8482597518        0.0549602516       -0.8184735594
 H         -5.7396460314        0.9550340810        0.7037062654
 O         -3.6909389355       -0.8956896207       -0.8994006780
 C         -2.5609539333       -1.6996267399       -0.8271349023
 O         -2.5166179276       -2.5663679311       -1.7210140796
 O         -0.9811649100       -0.1085590709        2.0152109978
 C         -0.4212248591       -2.3370527104        0.4025789788
 C          0.7198443207       -1.9638257544       -0.5127210045
 C          0.6288879238       -2.1061533565       -1.8937266359
 C          1.7019710581       -1.7763844067       -2.7008814416
 C          2.8755278999       -1.2863989889       -2.1535258379
 C          2.9735445051       -1.1338674471       -0.7762936592
 C          1.9008495254       -1.4827654319        0.0332187966
 H          1.9941716478       -1.3608719542        1.1019326988
 N          4.1492427279       -0.6379892344       -0.1845136398
 S          4.0253120617        0.6171270750        0.9198839086
 O          5.3699925629        1.1399649298        1.0247221871
 O          3.4323523053        0.1436264543        2.1426616170
 C          2.9776759764        1.8009961923        0.0960636459
 C          3.5833232723        2.6889848844       -0.7729874719
 C          2.7950927977        3.5579951906       -1.5082235673
 C          1.4155215566        3.5122294573       -1.3755903373
 C          0.8243370055        2.6145308844       -0.5010712623
 C          1.6066426052        1.7496082388        0.2489404325
 H          1.1611932322        1.0529999357        0.9424136990
 H         -0.2481059107        2.5741769822       -0.3971065577
 H          0.7956823233        4.1791403436       -1.9537935907
 H          3.2545061321        4.2611956950       -2.1839536807
 H          4.6592126081        2.6901036730       -0.8423667977
 H          4.8906906278       -0.4475605375       -0.8439797384
 H          3.7102134481       -1.0265001028       -2.7866730604
 H          1.6218722691       -1.8956792864       -3.7707381613
 H         -0.2915016149       -2.4696871827       -2.3240877164
 H         -0.0937997724       -2.1286711361        1.4310260196
 C         -0.7257966071       -3.8190594615        0.2934864670
 C          0.2044913548       -4.7969534237        0.9433467508
 C         -1.1630702241       -4.5699522678        1.5133101543
 H         -1.9059035885       -5.3454897454        1.4019748080
 H         -1.2443238969       -4.0182564569        2.4389002217
 H          0.4034988709       -5.7307723304        0.4405335478
 H          1.0512263304       -4.3988285729        1.4827091078
 H         -1.1743106024       -4.1001144534       -0.6500970729
