  62
        -98.94182734
 C          2.3783574804        1.0798745271        0.1393267417
 C          3.6323601253        0.9241254546        0.7880244708
 C          4.5971286193        0.0324664072        0.1368839303
 C          4.2598290232       -0.5918878719       -1.0055492479
 C          5.1396941114       -1.5142905213       -1.8048917335
 C          5.1424847918       -2.9649600282       -1.3037557374
 C          5.8939333944       -3.1987222784        0.0074516239
 H          6.0026744316       -4.2786575535        0.1254575307
 H          6.8966052963       -2.7771474407       -0.0699154366
 C          5.1900148842       -2.6349569924        1.2497514320
 H          5.1999596219       -3.3837755779        2.0449785568
 H          4.1421324490       -2.4336597080        1.0143281638
 C          5.8241632866       -1.3644557385        1.8161573914
 H          5.2249155285       -1.0328517893        2.6678377401
 H          6.8300798821       -1.5874460451        2.1784637022
 C          5.9115345195       -0.2024477001        0.8181229006
 H          6.1673141813        0.7049966152        1.3705362828
 H          6.6915842469       -0.3961736731        0.0821519448
 H          4.1076727858       -3.2989412002       -1.1962988622
 H          5.6093580318       -3.5761900248       -2.0796754854
 H          6.1599351420       -1.1294437411       -1.8150861461
 H          4.7533149186       -1.5041319543       -2.8264619369
 O          3.0446913146       -0.4312206573       -1.5903740256
 C          2.0667619267        0.3862047341       -1.0318234839
 O          1.0053745754        0.3999927939       -1.6836577691
 O          3.9320800026        1.5081587656        1.8625974359
 C          1.3606378647        1.9822555247        0.8170815525
 C          0.0547868084        1.2484372978        0.9770228637
 C         -0.0862032025        0.3199438742        2.0041129398
 C         -1.2544114277       -0.4052632886        2.1433645739
 C         -2.3011513418       -0.2285529881        1.2551085371
 C         -2.1611557816        0.6793000823        0.2145795030
 C         -0.9970422981        1.4270777359        0.0935076893
 H         -0.8933643793        2.1217561656       -0.7254147615
 N         -3.2105165204        0.8601797648       -0.7008708447
 S         -4.0296170672       -0.4828153614       -1.2832287982
 O         -3.2038169655       -1.6675715615       -1.3003851067
 O         -4.5816102185       -0.0620891629       -2.5530289213
 C         -5.3649703457       -0.6870936024       -0.1200336850
 C         -5.5783232517       -1.9142822261        0.4764391983
 C         -6.6292646668       -2.0527597882        1.3699551158
 C         -7.4451365097       -0.9672552735        1.6489725125
 C         -7.2199558391        0.2579521338        1.0391665933
 C         -6.1718620102        0.4023469519        0.1444265948
 H         -5.9653849038        1.3353528844       -0.3525657111
 H         -7.8566740259        1.0998556809        1.2584424466
 H         -8.2614057607       -1.0771100975        2.3453375472
 H         -6.8058519391       -3.0050404005        1.8438288518
 H         -4.9150517760       -2.7292853998        0.2327824881
 H         -2.9775975129        1.4886906022       -1.4563393927
 H         -3.2085408701       -0.8025131275        1.3476864117
 H         -1.3516574318       -1.1193646093        2.9470529162
 H          0.7382198157        0.1662579363        2.6868846915
 H          1.7808521372        2.1537500151        1.8212955244
 C          1.1979865503        3.3543442202        0.1801424426
 C          2.3918786830        4.0925465971       -0.3453088454
 C          1.3365302756        3.6055363187       -1.2902607311
 H          0.6817806763        4.3352804913       -1.7448270900
 H          1.5621467189        2.7676762318       -1.9310303154
 H          2.4687198657        5.1529079426       -0.1583927730
 H          3.3398777803        3.5746357237       -0.3307644510
 H          0.4541970891        3.9490788821        0.7021649142
