  62
        -98.93877768
 C         -1.7337449294       -1.1287393904       -0.4307393802
 C         -0.7484142811       -1.8106651842       -1.1828022208
 C          0.1583047719       -2.7037986415       -0.4420988346
 C          0.0386238700       -2.7829788825        0.8944809167
 C          0.9225825456       -3.5311720432        1.8539303965
 C          2.0550829150       -2.6157309773        2.3533842520
 C          3.3226032768       -2.6449409351        1.5012803823
 H          4.0026058306       -1.8940149992        1.9113701474
 H          3.8057830230       -3.6191995169        1.6050830302
 C          3.1042612865       -2.3535478155        0.0147664041
 H          2.4010046026       -1.5240538275       -0.0882739906
 H          4.0564573859       -2.0279266079       -0.4079349689
 C          2.5994273026       -3.5697173928       -0.7746718092
 H          2.7064162966       -4.4646706533       -0.1621626509
 H          3.2297049946       -3.7176198668       -1.6538840026
 C          1.1558266324       -3.4569173681       -1.2809342598
 H          1.1499646153       -2.9385714594       -2.2450090289
 H          0.7628224531       -4.4630768060       -1.4635785537
 H          1.6697302148       -1.5921558881        2.3963328128
 H          2.3218411641       -2.9080487507        3.3715716084
 H          0.2962408265       -3.8081944485        2.7044571179
 H          1.3168222144       -4.4354193680        1.3992303050
 O         -0.9154805011       -2.1026061842        1.5844410234
 C         -1.7991707767       -1.2408635174        0.9598412801
 O         -2.5812652849       -0.6659104421        1.7406178172
 O         -0.6161958260       -1.6611937559       -2.4289959632
 C         -2.6099409214       -0.1264432557       -1.1638507254
 C         -2.5299589512        1.1937270505       -0.4396184576
 C         -3.6290868488        1.9285005749       -0.0191073975
 C         -3.4503619990        3.0988044543        0.6996615899
 C         -2.1845610904        3.5444361684        1.0303833061
 C         -1.0768995885        2.8184518534        0.6045147108
 C         -1.2576221843        1.6773582374       -0.1559492024
 H         -0.3957171404        1.1111263486       -0.4805432327
 N          0.2267173249        3.2387589193        0.9104258647
 S          1.4692565462        2.1410257304        1.1247702355
 O          1.0068832837        0.8515165773        1.5835771728
 O          2.4073509315        2.8166367135        1.9986679272
 C          2.2280236841        1.9726377393       -0.4797060395
 C          3.3477522408        1.1662093281       -0.5467032034
 C          3.9870763189        0.9973600924       -1.7638622421
 C          3.4987218030        1.6383077525       -2.8918954838
 C          2.3793746319        2.4506194400       -2.8074698698
 C          1.7353261752        2.6245116017       -1.5913966620
 H          0.8613424058        3.2484729530       -1.5029430678
 H          2.0008920822        2.9493348570       -3.6852951438
 H          3.9937084652        1.5041712102       -3.8406789151
 H          4.8599452446        0.3677942461       -1.8281195550
 H          3.6932604927        0.6886654971        0.3564278285
 H          0.2921258624        4.0067592982        1.5614456853
 H         -2.0493922752        4.4375192779        1.6213198382
 H         -4.3122860210        3.6592362168        1.0289243300
 H         -4.6250676066        1.5722983942       -0.2243824715
 H         -2.1172849453       -0.0073820158       -2.1440670003
 C         -4.0289506864       -0.5906652983       -1.4499663525
 C         -4.3660046194       -2.0498845601       -1.5082075199
 C         -4.9047717184       -1.2005170867       -0.3982950999
 H         -5.9576361437       -0.9581912928       -0.4061096913
 H         -4.4889419759       -1.3164591158        0.5898597174
 H         -5.0449366658       -2.3903099534       -2.2756641735
 H         -3.5794996279       -2.7533170683       -1.2751719193
 H         -4.5212641479        0.0413610908       -2.1828635993
