  62
        -98.94528277
 C          2.6321476656        1.1117742932        0.3100970564
 C          2.6272518558        0.3506250921       -0.8841693927
 C          3.3088873236       -0.9504025818       -0.8161488005
 C          3.8806867171       -1.3374673810        0.3385692211
 C          4.5510310049       -2.6612514481        0.5633550991
 C          3.5565676574       -3.7018406723        1.0972977349
 C          2.2556761599       -3.7829517073        0.2974596741
 H          1.6446952488       -4.5700967525        0.7453946483
 H          1.7001553461       -2.8482968748        0.4124634136
 C          2.4467296195       -4.0731866833       -1.1977685776
 H          3.4422891165       -4.4837318049       -1.3710623523
 H          1.7231841984       -4.8330394248       -1.5004352474
 C          2.2297648583       -2.8650625069       -2.1111289927
 H          1.2690673412       -2.3966164645       -1.8772816563
 H          2.1722189823       -3.2253611533       -3.1418278567
 C          3.3214831057       -1.7881411505       -2.0633482951
 H          4.2999921128       -2.2502048738       -2.2091401260
 H          3.1388771605       -1.0959602788       -2.8904619969
 H          4.0444029609       -4.6781007289        1.0975348661
 H          3.3073144067       -3.4461318281        2.1298307412
 H          4.9860650986       -3.0058453690       -0.3724864535
 H          5.3474255945       -2.5239848349        1.2966494233
 O          3.8650594660       -0.5781282465        1.4643142140
 C          3.2256539140        0.6514380272        1.4844096917
 O          3.2500121000        1.2260843273        2.5925016132
 H          0.3227027566        0.6815226416        1.4996347501
 C         -0.2178313558        1.2542166281        0.7543727243
 C          0.4553793408        2.2448538384        0.0491419688
 C         -0.2476181155        2.9731397521       -0.9003588809
 C         -1.5826529826        2.6983527951       -1.1448257189
 C         -2.2446432832        1.7045069269       -0.4481484880
 C         -1.5526924457        0.9754192723        0.5106550067
 N         -2.2193133063       -0.0318178079        1.2347900110
 S         -2.9826226318       -1.2389268861        0.3458840971
 O         -3.0279919405       -2.3850481812        1.2283327002
 O         -2.3468597974       -1.4382846153       -0.9356790210
 C         -4.6337826096       -0.6110824739        0.1251834175
 C         -5.3615796588       -0.2887769622        1.2540212756
 C         -6.6479046567        0.2035332913        1.1025120904
 C         -7.1826252780        0.3610064120       -0.1676645113
 C         -6.4406454457        0.0283134794       -1.2906645741
 C         -5.1523422704       -0.4632634199       -1.1461591367
 H         -4.5350150762       -0.7287414817       -1.9896823463
 H         -6.8581244741        0.1506894352       -2.2771481353
 H         -8.1837702768        0.7452153815       -0.2830847126
 H         -7.2279551511        0.4631869684        1.9733516158
 H         -4.9095626943       -0.4300751013        2.2215231838
 H         -1.6479324222       -0.4468147914        1.9573260549
 H         -3.2817325198        1.4840309856       -0.6414205202
 H         -2.1148763734        3.2662751519       -1.8925258281
 H          0.2521798228        3.7467842135       -1.4593355534
 C          1.9194226107        2.4524925893        0.3555956311
 H          2.0032149085        2.8062990045        1.3936842287
 C          2.6003838694        3.4501326131       -0.5565149329
 C          2.5111478386        4.9171052333       -0.2647086750
 C          3.8023372105        4.1875723103       -0.0506890527
 H          4.6195180564        4.3699078219       -0.7322130491
 H          4.1171758027        3.9857527328        0.9630899279
 H          1.9506795427        5.2198613176        0.6067637885
 H          2.4447685060        5.6049434029       -1.0939927113
 H          2.6087123019        3.1301036462       -1.5918334608
 O          2.0832729801        0.7344042850       -1.9517580971
