  62
        -98.93959367
 C          2.5839086597        0.7423639296        0.6556093815
 C          3.0541559471        0.1911704097       -0.5611249407
 C          3.5755207334       -1.1814231394       -0.4811244021
 C          3.5757281266       -1.8205196211        0.7028213621
 C          4.0242284671       -3.2372070215        0.9130628691
 C          2.8533142956       -4.2187707346        0.7631106805
 C          2.0213910065       -4.0006802284       -0.5009306748
 H          1.2435345231       -4.7671196764       -0.5143457219
 H          1.5179369540       -3.0330640260       -0.4360397715
 C          2.8240608827       -4.0646406786       -1.8078709182
 H          2.2694459419       -4.6673113104       -2.5300283740
 H          3.7775307719       -4.5644515948       -1.6332225467
 C          3.0774720228       -2.7060448230       -2.4641032023
 H          3.4540064356       -2.8818634737       -3.4752736641
 H          2.1345968683       -2.1606492978       -2.5571217071
 C          4.0886581847       -1.7992715020       -1.7512204386
 H          5.0127384005       -2.3507743491       -1.5667277559
 H          4.3136366913       -0.9636060752       -2.4203052695
 H          2.1963681090       -4.1082796551        1.6289575579
 H          3.2523835579       -5.2346243144        0.7671031943
 H          4.8060332571       -3.4749312310        0.1945111316
 H          4.4318541720       -3.3228560539        1.9217153792
 O          3.1105487084       -1.2587942049        1.8486652522
 C          2.5909427835        0.0250662600        1.8511743426
 O          2.1676448251        0.4067864834        2.9623600084
 H         -0.1029655356        0.5690366961        0.8308138660
 C         -0.2277780829        1.2913810645        0.0320429270
 C          0.7874584731        2.2121539504       -0.2013529888
 C          0.6136678941        3.1450597523       -1.2135733910
 C         -0.5386200274        3.1359877021       -1.9817305953
 C         -1.5382410606        2.2081489926       -1.7575087924
 C         -1.3817272799        1.2788095035       -0.7361419027
 N         -2.3897873106        0.3175197348       -0.4978697074
 S         -3.9476412007        0.9221785737       -0.2287465026
 O         -4.4711493798        1.4121676018       -1.4778516238
 O         -3.9313128196        1.8692488991        0.8654034959
 C         -4.8111473428       -0.5610915714        0.2474564649
 C         -5.2421609963       -1.4227211474       -0.7431375215
 C         -5.8984878844       -2.5871220684       -0.3777825338
 C         -6.1112576327       -2.8688711268        0.9636536867
 C         -5.6731263015       -1.9939381891        1.9462520851
 C         -5.0146437491       -0.8280700925        1.5877169714
 H         -4.6650714264       -0.1151391991        2.3175812352
 H         -5.8418988065       -2.2138988976        2.9881684372
 H         -6.6242815930       -3.7747513262        1.2456842665
 H         -6.2428942161       -3.2691401635       -1.1383025898
 H         -5.0630475143       -1.1576611356       -1.7718986180
 H         -2.1383022821       -0.2856291144        0.2752341196
 H         -2.4403038227        2.1997278934       -2.3468123448
 H         -0.6587004743        3.8627867532       -2.7710225520
 H          1.3809787680        3.8761197352       -1.4073418406
 C          2.0116773019        2.1488800660        0.6810269935
 H          1.6870546230        2.3259676846        1.7171414460
 C          3.0775490256        3.1633107875        0.3261582772
 C          2.9699374702        4.5707956200        0.8283141833
 C          4.0012622505        3.6471581083        1.4016886168
 H          5.0389304916        3.8129615727        1.1541262259
 H          3.8470627075        3.2613651315        2.3991966435
 H          3.3021017595        5.3742312645        0.1884246355
 H          2.1154806739        4.8190449484        1.4398916744
 H          3.4995316827        2.9996248922       -0.6583319930
 O          3.0417681574        0.8086083137       -1.6570684769
