  62
        -98.94412403
 C         -1.8166599098       -1.1179131305       -0.0746622406
 C         -2.2629546000        0.0082396703       -0.8070467993
 C         -3.7215343700        0.1615458801       -0.9162031492
 C         -4.5268489599       -0.7539231007       -0.3472471603
 C         -6.0261959899       -0.6890625109       -0.3370050002
 C         -6.5420603301        0.0481885675        0.9068141106
 C         -5.8509681703        1.3876303473        1.1623812122
 H         -6.3152062904        1.8295240362        2.0466810527
 H         -4.8013707603        1.2076692272        1.4060883520
 C         -5.9343142505        2.3783971087       -0.0071237766
 H         -6.1924372706        3.3639249982        0.3861392845
 H         -6.7331658904        2.0821414394       -0.6879620670
 C         -4.6327918805        2.5408053298       -0.7947277264
 H         -3.8089816005        2.7465088392       -0.1062122761
 H         -4.7368382506        3.4111290706       -1.4483501354
 C         -4.2348207002        1.3511470509       -1.6774317478
 H         -5.0742840602        1.0690455215       -2.3163174581
 H         -3.4088435103        1.6750559018       -2.3177622874
 H         -7.6159423401        0.2068348775        0.7931326008
 H         -6.3830956800       -0.5906391635        1.7785508099
 H         -6.3686170400       -0.1854701299       -1.2388740496
 H         -6.4145877097       -1.7088666010       -0.3313062214
 O         -4.0593647297       -1.8304796214        0.3349187885
 C         -2.6989673097       -2.0339939613        0.4981812983
 O         -2.4055410595       -3.0472191520        1.1641006871
 H          1.7788122499        0.2370467909       -0.7385522990
 C          1.3708406599        0.5239409097        0.2157780414
 C          0.3074746700       -0.1711629611        0.7683535605
 C         -0.2042828701        0.2513091974        1.9937457610
 C          0.3220005297        1.3529713567        2.6379880123
 C          1.3779015496        2.0520304475        2.0791422132
 C          1.8988788397        1.6366326091        0.8597485827
 N          2.9593688595        2.3357296999        0.2742823435
 S          4.0389015397        1.6254542013       -0.7700561573
 O          5.1864272195        2.5084537915       -0.7439539262
 O          3.4444651798        1.4144523828       -2.0661130175
 C          4.4811770000        0.0535683406       -0.0479436191
 C          4.6596359802       -1.0290774084       -0.8845808304
 C          5.0343978804       -2.2473876090       -0.3410148318
 C          5.2233470004       -2.3617270705        1.0271103881
 C          5.0449447701       -1.2641572215        1.8550342694
 C          4.6744310599       -0.0427567810        1.3157741908
 H          4.5337069198        0.8238654883        1.9404269418
 H          5.1926554101       -1.3558963428        2.9190192593
 H          5.5109263805       -3.3113524310        1.4500043370
 H          5.1737975205       -3.1010755682       -0.9847526728
 H          4.4955685202       -0.8957003072       -1.9419347102
 H          3.3684431294        3.0715671394        0.8288458544
 H          1.7861769794        2.9192004270        2.5752135942
 H         -0.0900003804        1.6717049755        3.5836410427
 H         -1.0314990300       -0.2951393133        2.4268199504
 C         -0.3285195198       -1.3665986004        0.1038773791
 H         -0.2452258797       -2.2226562812        0.7890423481
 C          0.2993684703       -1.7439609788       -1.2204674813
 C          1.5293505304       -2.5982926285       -1.2518370323
 C          0.2103368506       -3.1677911283       -1.6780063530
 H          0.0454602606       -3.3633007371       -2.7269913832
 H         -0.2846789593       -3.8677306091       -1.0204970038
 H          1.9417142905       -2.9172406096       -0.3065706926
 H          2.2697372704       -2.4003065475       -2.0115304220
 H          0.1945081902       -0.9698955479       -1.9725562204
 O         -1.4887556402        0.8436029710       -1.3433105683
