  62
        -98.93561903
 C         -2.3202767340       -0.6475406304        0.8729188259
 C         -3.4895979662       -1.0342930459        0.1707583001
 C         -4.6419035415       -0.1252385723        0.2962294788
 C         -4.5336228346        0.9898981037        1.0390427080
 C         -5.6083066290        2.0254115776        1.1981313988
 C         -5.4843040947        3.1241247106        0.1332436545
 C         -5.3319170837        2.5896380642       -1.2908660709
 H         -5.2836053673        3.4528633111       -1.9582153057
 H         -4.3764577127        2.0662271661       -1.3738949063
 C         -6.4633208787        1.6557544032       -1.7428644511
 H         -6.7672295894        1.9379640310       -2.7530730214
 H         -7.3312766305        1.7853806900       -1.0954430378
 C         -6.0826919319        0.1749095316       -1.7894646175
 H         -6.8720687658       -0.3622906481       -2.3218036302
 H         -5.1598331851        0.0520756887       -2.3616849858
 C         -5.9007853824       -0.5106367320       -0.4294732723
 H         -6.7766255187       -0.3267337977        0.1958148051
 H         -5.8245271843       -1.5870723118       -0.6086218481
 H         -6.3675924344        3.7627154941        0.1920535193
 H         -4.6077122092        3.7334571562        0.3656926292
 H         -5.5067236964        2.4762970337        2.1867202523
 H         -6.5818002001        1.5441414776        1.1270177059
 O         -3.3966576201        1.3271628176        1.7020293789
 C         -2.2715752254        0.5244242610        1.6324509269
 O         -1.3010078847        0.9500352753        2.2934622287
 O         -3.5891253893       -2.0742399578       -0.5279128244
 C         -1.0397690814       -1.4659219621        0.8656960459
 C         -0.1597896162       -1.0983208515       -0.3020256007
 C         -0.6646928869       -1.0296181593       -1.5968890510
 C          0.1630787489       -0.6945675645       -2.6525065989
 C          1.5031310450       -0.4240703963       -2.4395405422
 C          2.0205718302       -0.4987967357       -1.1510735920
 C          1.1855943923       -0.8315438077       -0.0929891828
 H          1.5918031757       -0.8631216149        0.9067190197
 N          3.3908833460       -0.2836707044       -0.9252704568
 S          3.9063579472        0.4400484060        0.5096785527
 O          3.8055888509       -0.5216808150        1.5779526450
 O          3.2265633651        1.7012945794        0.7046134279
 C          5.6230932529        0.7130349159        0.1130295987
 C          6.0382974858        1.9635226685       -0.3035174877
 C          7.3719015838        2.1520376730       -0.6316681308
 C          8.2616129681        1.0921986456       -0.5413790055
 C          7.8300732978       -0.1571941952       -0.1207607523
 C          6.4987657270       -0.3520138403        0.2104196226
 H          6.1195948074       -1.3009627112        0.5517985308
 H          8.5252587564       -0.9779796308       -0.0486205064
 H          9.2985482148        1.2416613287       -0.7975822845
 H          7.7110524961        3.1229271656       -0.9551344172
 H          5.3128045760        2.7599109745       -0.3497026139
 H          3.8532603097        0.1323573665       -1.7227902913
 H          2.1463629377       -0.1610325885       -3.2655378484
 H         -0.2402007988       -0.6409359465       -3.6526167356
 H         -1.7077624249       -1.2494123693       -1.7655868956
 H         -0.5032550646       -1.1683606577        1.7818572416
 C         -1.2909914839       -2.9661028701        0.9596938218
 C         -1.0135853616       -3.9238634235       -0.1557373370
 C         -0.1278255526       -3.9092949926        1.0512141358
 H         -0.1827834440       -4.7314685043        1.7486357451
 H          0.8604762393       -3.4860266884        0.9448392681
 H         -1.7005883126       -4.7453883035       -0.2884323428
 H         -0.6223227912       -3.5303607441       -1.0803176914
 H         -2.1491782214       -3.1917375168        1.5845620847
