  62
        -98.93745135
 C          0.9706918231        1.5296173409        0.5803298456
 C          1.6526683908        1.1209570019       -0.5882092099
 C          2.7030739423        0.0954664297       -0.4121881714
 C          2.9049449154       -0.4327708242        0.8075319353
 C          3.9423506103       -1.4374426589        1.2411821486
 C          5.3716527932       -1.1902821297        0.7326046939
 C          5.8348952825       -2.2216146008       -0.2974689257
 H          6.9266577918       -2.2545503979       -0.2926725106
 H          5.4794127346       -3.2071057461        0.0106462424
 C          5.3881221793       -1.9477863671       -1.7325699392
 H          5.9442948215       -1.0942059565       -2.1263283399
 H          5.6614200491       -2.8175441057       -2.3347185056
 C          3.8931764666       -1.6759659831       -1.9155885350
 H          3.6405982612       -1.9059427537       -2.9530409525
 H          3.3053678069       -2.3460332690       -1.2908585613
 C          3.4931328969       -0.2168243387       -1.6544547581
 H          2.8636217421        0.1421038831       -2.4752972244
 H          4.3840753443        0.4187600601       -1.6675231007
 H          5.4498799558       -0.1848522521        0.3212829183
 H          6.0459805835       -1.2417872609        1.5889075598
 H          3.6199750039       -2.4398668520        0.9520313656
 H          3.9256983184       -1.4091342727        2.3328246656
 O          2.1272011463       -0.1006502252        1.8785755580
 C          1.1626403172        0.8819412260        1.8008845055
 O          0.5469439418        1.0875387457        2.8674902535
 O          1.4219814487        1.5947200168       -1.7305643503
 C         -0.0422824680        2.6641250467        0.5517692055
 C         -1.2951640114        2.1898145332       -0.1414281668
 C         -1.6661867426        2.5805123596       -1.4205586664
 C         -2.8126999242        2.0671393806       -2.0045689231
 C         -3.6128694760        1.1652056367       -1.3269032946
 C         -3.2469247566        0.7677991188       -0.0469857430
 C         -2.0966176973        1.2762486491        0.5342483764
 H         -1.8039257545        0.9586797599        1.5275141674
 N         -4.0509313226       -0.1711252051        0.6424252962
 S         -3.9965406801       -1.7292054760        0.0308630873
 O         -4.5003030035       -1.7139816313       -1.3177338939
 O         -4.7149932977       -2.5514674459        0.9765994660
 C         -2.2657422848       -2.1595503971        0.0385802646
 C         -1.4502537174       -1.6805118475       -0.9676824961
 C         -0.0948027112       -1.9625676684       -0.9202280754
 C          0.4144621347       -2.7170843837        0.1245653094
 C         -0.4147834198       -3.1865765931        1.1304811901
 C         -1.7690939708       -2.8989215062        1.0930855490
 H         -2.4518107192       -3.2438025991        1.8531816479
 H         -0.0091160284       -3.7680977372        1.9427509149
 H          1.4686018066       -2.9404354347        0.1550112736
 H          0.5582724249       -1.5836746250       -1.6903673523
 H         -1.8798319014       -1.1036357380       -1.7705109739
 H         -3.8463309403       -0.2067697406        1.6321133687
 H         -4.4998097887        0.7460461051       -1.7731684676
 H         -3.0876664481        2.3761025818       -3.0016326365
 H         -1.0497205238        3.2747435560       -1.9666408622
 H         -0.3001183644        2.8557229589        1.6027710345
 C          0.5476671564        3.9264954025       -0.0391540571
 C         -0.1285511630        5.2392731671        0.2135027763
 C          1.1815736839        4.9317071645        0.8727156358
 H          2.0653454655        5.4503510028        0.5325820430
 H          1.1835492681        4.7169711369        1.9317060052
 H         -0.1457179889        5.9726465609       -0.5780387366
 H         -1.0180051113        5.2321151080        0.8254402907
 H          1.0138302303        3.7713029524       -1.0037059165
