  62
        -98.93972140
 C         -2.3542544301       -1.2558611217       -0.0332351530
 C         -3.0036018440       -0.3955909076        0.8807190324
 C         -3.5822139286        0.8411214804        0.3304936097
 C         -3.4384683771        1.1103835562       -0.9808947679
 C         -3.9450181353        2.2670675890       -1.8166379317
 C         -4.4055384141        3.5647539770       -1.1570760870
 C         -3.3051039923        4.3463106761       -0.4409076378
 H         -2.6010991708        4.7239355473       -1.1868429269
 H         -3.7636650724        5.2072984478        0.0505123361
 C         -2.5004412915        3.5590682921        0.5909863099
 H         -1.7724203399        4.2415057740        1.0393828246
 H         -1.9266134340        2.7747946106        0.0903101364
 C         -3.3186994189        2.9391485839        1.7231183672
 H         -3.9289640335        3.7097207052        2.1977988685
 H         -2.6122667154        2.5658581918        2.4699150681
 C         -4.2305237504        1.7656197099        1.3201906690
 H         -4.4270763552        1.1691986874        2.2158434683
 H         -5.1879849075        2.1180393189        0.9446055317
 H         -4.7908698733        4.1998302135       -1.9592844999
 H         -5.2335073593        3.3728647936       -0.4811307706
 H         -3.1398118940        2.4916410522       -2.5234357192
 H         -4.7751130174        1.8674580518       -2.4097300944
 O         -2.7882344894        0.2560458261       -1.8230980611
 C         -2.2113278789       -0.9228417991       -1.3793472636
 O         -1.6221840693       -1.5687316501       -2.2654448795
 O         -3.0953750316       -0.6469701840        2.1141051345
 C         -1.6925625268       -2.5198321543        0.4902762902
 C         -0.1979817683       -2.3489196613        0.3687404116
 C          0.6316930768       -3.2095213690       -0.3358888036
 C          1.9846340822       -2.9368450104       -0.4528502134
 C          2.5369040650       -1.8094715916        0.1270081234
 C          1.7162653994       -0.9480455601        0.8439685144
 C          0.3666180780       -1.2274754976        0.9662622338
 H         -0.2723392342       -0.5494142821        1.5197569253
 N          2.2698681394        0.2160100402        1.4272608460
 S          2.7562072942        1.3839892995        0.3124283660
 O          2.7640819279        2.6324019363        1.0445861972
 O          1.9409802586        1.3463369951       -0.8815783540
 C          4.4305150790        0.9175613090       -0.0673386780
 C          5.3579067317        0.9352617965        0.9563860638
 C          6.6650299368        0.5678231980        0.6801228115
 C          7.0202194473        0.1935683783       -0.6075427382
 C          6.0775426490        0.1838837589       -1.6243362336
 C          4.7674578170        0.5487441161       -1.3545496659
 H          3.9974494574        0.5495250158       -2.1096013673
 H          6.3551384534       -0.1075505588       -2.6245488604
 H          8.0380860139       -0.0924541551       -0.8204657732
 H          7.4010232482        0.5736562744        1.4677522756
 H          5.0385455281        1.2374661373        1.9396878905
 H          1.6419189748        0.6492241193        2.0913826864
 H          3.5880668576       -1.5913956076        0.0308672622
 H          2.6169097777       -3.6106568141       -1.0104625599
 H          0.2171323950       -4.0851171498       -0.8073807144
 H         -1.9466465941       -2.5605801248        1.5596886100
 C         -2.2335848335       -3.7569519056       -0.1903213666
 C         -2.1452871043       -5.0856233285        0.4975136959
 C         -3.4711102945       -4.4025984352        0.3544893982
 H         -4.1895606887       -4.8068540152       -0.3425197895
 H         -3.9177044279       -3.9598815354        1.2328624242
 H         -1.9550932752       -5.9640198262       -0.1000510572
 H         -1.6918789403       -5.1108255583        1.4767337396
 H         -2.1198021463       -3.7264185867       -1.2674967788
