  62
        -98.94102228
 C          1.0528645802        1.3490470799       -0.1857870082
 C          1.9234944097        0.9386615491        0.8554486819
 C          2.8283279498       -0.1934582807        0.5830575816
 C          2.7787829603       -0.7792284199       -0.6274931888
 C          3.6287515404       -1.9011368696       -1.1632931892
 C          5.0507528606       -1.4460031095       -1.5272346483
 C          5.7271328402       -0.5580706302       -0.4864552774
 H          6.6857981504       -0.2340314600       -0.9001329268
 H          5.1228107102        0.3374868397       -0.3319993571
 C          6.0006218096       -1.2254092812        0.8594905623
 H          6.5826783994       -0.5196250716        1.4576479930
 H          6.6180759896       -2.1124389611        0.7015069519
 C          4.7658283792       -1.6265659316        1.6703445215
 H          5.1002870387       -1.8304169723        2.6916433615
 H          4.3350895093       -2.5522986213        1.2979571706
 C          3.6935962592       -0.5460699516        1.7684724717
 H          2.9954826489       -0.8163591521        2.5697408712
 H          4.1569832992        0.3903894381        2.0987943625
 H          5.6613953506       -2.3331577594       -1.7041142686
 H          4.9974606211       -0.8822439789       -2.4619001479
 H          3.6600642300       -2.7250582501       -0.4565709198
 H          3.1393168908       -2.2588319190       -2.0717718597
 O          1.9101373607       -0.3673581192       -1.5912931690
 C          1.0274530507        0.6782852907       -1.4075319986
 O          0.2979262112        0.8879038614       -2.3995005888
 O          1.9576782493        1.5082600684        1.9786968723
 C          0.1483510202        2.5335698798        0.1134082822
 C         -1.2313861000        2.0670474396        0.5084898113
 C         -1.7539111306        2.3397668888        1.7668637312
 C         -3.0067131308        1.8735124887        2.1283744804
 C         -3.7573361504        1.1138386593        1.2482385895
 C         -3.2380974899        0.8322103001       -0.0079586004
 C         -1.9940637197        1.3182912003       -0.3764347395
 H         -1.5975821793        1.0878616309       -1.3541201595
 N         -3.9636553396       -0.0051017892       -0.8913194413
 S         -3.9939413299       -1.6061254296       -0.3920772524
 O         -4.3834143694       -2.3788542388       -1.5493588331
 O         -4.8526276304       -1.7087147103        0.7603837472
 C         -2.3128893101       -1.9860121100        0.0742203481
 C         -1.9000338407       -1.7322755009        1.3670712984
 C         -0.5810038909       -1.9804109812        1.7090611289
 C          0.2958646095       -2.4834273807        0.7610401989
 C         -0.1331454299       -2.7306490798       -0.5336098014
 C         -1.4477245697       -2.4713927594       -0.8852081618
 H         -1.8178366993       -2.6505204687       -1.8822933421
 H          0.5531047704       -3.1159766493       -1.2706924314
 H          1.3203581794       -2.6807449609        1.0338866992
 H         -0.2393101013       -1.7774895619        2.7114420691
 H         -2.6135609110       -1.3547943313        2.0809666184
 H         -3.5968762291        0.0291596714       -1.8335071511
 H         -4.7201439206        0.7132791492        1.5212505288
 H         -3.3991571812        2.0953901480        3.1090457704
 H         -1.1630326708        2.9062936083        2.4714292319
 H          0.5977896898        3.0254772292        0.9862535327
 C          0.0740160508        3.5383242905       -1.0197706271
 C         -0.3533334993        4.9422575304       -0.7177738864
 C          1.0720093409        4.6537018705       -1.0801996060
 H          1.4347852313        4.9675516911       -2.0474656556
 H          1.8165734705        4.7018703599       -0.2989545056
 H         -0.9731392889        5.4572198709       -1.4355424663
 H         -0.5748153597        5.1875708097        0.3098230737
 H         -0.2441257189        3.1060239812       -1.9594854276
