  62
        -98.94399103
 C         -1.0020787495       -1.6420830424       -0.4931987246
 C         -2.1692504609       -1.7722414325        0.3053397497
 C         -3.2458315417       -0.8059581846        0.0597046245
 C         -3.0854707646        0.1205745333       -0.9021236397
 C         -4.1018921806        1.1641680149       -1.2637057853
 C         -3.8837303436        2.4633031234       -0.4774567171
 C         -3.6872361152        2.2507130402        1.0230150511
 H         -2.7574648545        1.7008308023        1.1863023306
 H         -3.5629472758        3.2352378677        1.4782957242
 C         -4.8436834045        1.5144943648        1.7142135636
 H         -5.0770788909        2.0288643925        2.6488500274
 H         -5.7367257472        1.5582442280        1.0894926542
 C         -4.5501231651        0.0564010665        2.0729394906
 H         -3.6047987544       -0.0044159629        2.6181745737
 H         -5.3384454584       -0.2924615689        2.7455027994
 C         -4.4898361505       -0.9235540415        0.8942168864
 H         -4.4808881012       -1.9379613865        1.3036872926
 H         -5.3831849022       -0.8119197755        0.2760523735
 H         -4.7417078677        3.1167221189       -0.6459285636
 H         -2.9937545576        2.9552496901       -0.8719519570
 H         -4.0107327023        1.3746638935       -2.3307195995
 H         -5.0974403979        0.7700586869       -1.0675797125
 O         -1.9544218514        0.2237061848       -1.6417577186
 C         -0.8817432061       -0.6409074403       -1.4570707664
 O          0.0783733635       -0.3992632808       -2.2135583109
 H          1.5489024424       -0.3732165866       -0.3128678265
 C          1.7938102619       -0.9871044785        0.5394612212
 C          1.1305056158       -2.1919737538        0.7318059222
 C          1.4631786522       -2.9760980142        1.8301003455
 C          2.4496275123       -2.5706259215        2.7106941460
 C          3.1237072177       -1.3818936417        2.5059562682
 C          2.7922006431       -0.5829297139        1.4149683751
 N          3.4448684481        0.6380471284        1.2297539073
 S          3.5006869962        1.4756047379       -0.2101096113
 O          3.6603744339        0.6013545253       -1.3464473074
 O          4.5682886224        2.4331162873        0.0002387188
 C          1.9610682540        2.3641618133       -0.2562561955
 C          1.6220518370        3.1006599593        0.8627400415
 C          0.4627145049        3.8566489576        0.8416541086
 C         -0.3324759284        3.8667507975       -0.2947638460
 C          0.0188272065        3.1183944730       -1.4066460553
 C          1.1801557662        2.3603064879       -1.3926240027
 H          1.4712588144        1.7506648544       -2.2332280396
 H         -0.6034751830        3.1110131984       -2.2877260763
 H         -1.2295940290        4.4661065487       -0.3118631786
 H          0.1819009321        4.4366936984        1.7059634495
 H          2.2714044461        3.0747884460        1.7219960115
 H          4.2430893992        0.8090289035        1.8215167984
 H          3.9005279395       -1.0661913241        3.1853053866
 H          2.7005211212       -3.1879401758        3.5597716084
 H          0.9364234767       -3.9042558285        1.9949015361
 C          0.0888329756       -2.6695222266       -0.2525915262
 H         -0.4257799197       -3.5273578229        0.2032125844
 C          0.7764846368       -3.1467950200       -1.5175230254
 C          1.3535636693       -4.5287905254       -1.5562573665
 C          0.1255940290       -4.2059777714       -2.3528564701
 H          0.2058055564       -4.1346702914       -3.4270659663
 H         -0.8214049559       -4.5982465614       -2.0110347842
 H          2.2832920955       -4.6817996248       -2.0825539910
 H          1.2382342003       -5.1466575850       -0.6786234931
 H          1.3146054247       -2.3632479726       -2.0359876539
 O         -2.3087763907       -2.6750594912        1.1741651943
