  62
        -98.94021116
 C         -2.2302629773       -1.0612122352       -0.4844788572
 C         -3.4251556519       -0.7344098753        0.2086641909
 C         -4.0725480958        0.5260673396       -0.1655839603
 C         -3.5250691413        1.2939520631       -1.1245654794
 C         -4.0702792966        2.6023712031       -1.6301312812
 C         -3.6809508837        3.8133971728       -0.7712551758
 C         -4.3957246997        3.9116400706        0.5772033007
 H         -4.1997857062        4.9109591269        0.9707386089
 H         -5.4718481534        3.8269569626        0.4231257389
 C         -3.9385565016        2.8753697809        1.6134843475
 H         -2.9800621000        2.4498329504        1.3054207229
 H         -3.7738690528        3.3690675240        2.5739121003
 C         -4.9313913452        1.7378912054        1.8531339855
 H         -5.8489653842        2.1384072647        2.2896196044
 H         -4.4891638995        1.0440846875        2.5724141865
 C         -5.2966098272        0.9433647377        0.5927425152
 H         -5.8213743451        0.0354989787        0.8997527199
 H         -5.9559151944        1.5310364152       -0.0455051670
 H         -2.5999789512        3.7935278004       -0.6116230579
 H         -3.9150469159        4.7106496542       -1.3489646890
 H         -3.6584532306        2.7435389811       -2.6317212402
 H         -5.1564322388        2.5415385039       -1.7054627944
 O         -2.3883935742        0.9406874969       -1.7801712108
 C         -1.7022745012       -0.2291289090       -1.4726812780
 O         -0.6796067844       -0.3974336967       -2.1646013674
 H          0.9634702804       -1.3372994292       -0.5831764706
 C          0.7942546868       -1.5282075583        0.4648457263
 C         -0.4239642873       -2.0361439561        0.8964509970
 C         -0.6254516869       -2.2293459637        2.2595971381
 C          0.3689578614       -1.9233414197        3.1702956420
 C          1.5809855687       -1.4180146461        2.7380414484
 C          1.7932749341       -1.2195988052        1.3774255693
 N          3.0336325949       -0.7408596127        0.9223255858
 S          3.0818375505        0.2891840199       -0.4164020715
 O          2.1037024173        1.3434635261       -0.2641090305
 O          3.0250590983       -0.5036534119       -1.6167591077
 C          4.7304921204        0.9466106259       -0.2261090259
 C          4.9110372550        2.1847277956        0.3603641827
 C          6.2001886583        2.6652898554        0.5307150542
 C          7.2816251124        1.9020626175        0.1174578716
 C          7.0851353477        0.6614520188       -0.4710038063
 C          5.7988705365        0.1764601816       -0.6457631747
 H          5.5953100083       -0.7762587354       -1.1059767289
 H          7.9278614368        0.0718062584       -0.7938870743
 H          8.2835777624        2.2777478318        0.2521086978
 H          6.3553330636        3.6310366056        0.9840614781
 H          4.0395932088        2.7455243944        0.6584286567
 H          3.6073558235       -0.3809144642        1.6736379939
 H          2.3596921174       -1.1773796092        3.4459121804
 H          0.1976495670       -2.0754028069        4.2251764622
 H         -1.5799992014       -2.6051168086        2.5987141573
 C         -1.5371996130       -2.3510310744       -0.0749374834
 H         -2.3019925448       -2.9192058639        0.4731990137
 C         -1.0639861967       -3.1945912086       -1.2396347851
 C         -0.8190973665       -4.6563314424       -1.0179616330
 C         -1.9949079505       -4.2081622487       -1.8318048299
 H         -1.9746985175       -4.3608468513       -2.9004066506
 H         -2.9798734580       -4.2956524365       -1.3966663507
 H          0.0123927255       -5.1200653094       -1.5259847721
 H         -1.0079170150       -5.0494149035       -0.0303891375
 H         -0.4060976087       -2.6704380685       -1.9206358544
 O         -3.9344270478       -1.4722291853        1.0942391817
