  62
        -98.94803394
 C         -1.2599199385       -1.0538184809        0.0160508653
 C         -1.6220517972        0.0315066876        0.8481956151
 C         -2.6410666175        0.9426796963        0.3133933737
 C         -3.1125499009        0.7416903056       -0.9306495797
 C         -4.1784490352        1.5697649272       -1.5868326061
 C         -5.5756668835        0.9912830057       -1.3224194024
 C         -5.8448436245        0.6755882931        0.1488304987
 H         -6.8688191813        0.3025947832        0.2191006631
 H         -5.1840536348       -0.1346522713        0.4649797018
 C         -5.6694515800        1.8705912171        1.0962094781
 H         -6.5121862203        1.8942182773        1.7902611536
 H         -5.6918153421        2.8007979825        0.5273348222
 C         -4.3962912923        1.8263854150        1.9430332458
 H         -4.4780833877        2.5908680263        2.7202259480
 H         -4.3231420890        0.8571714442        2.4426284609
 C         -3.0841246702        2.0802650182        1.1897777687
 H         -3.1610292316        3.0035486785        0.6111264599
 H         -2.2921868026        2.2112770129        1.9334629325
 H         -6.3180325846        1.7040595699       -1.6860889829
 H         -5.6809528067        0.0677315879       -1.8963358994
 H         -3.9930685664        1.5764826046       -2.6624627338
 H         -4.1175949952        2.5906808129       -1.2140837540
 O         -2.6980520118       -0.2777328201       -1.7252614667
 C         -1.7639444865       -1.2006096273       -1.2759087855
 O         -1.4734615182       -2.0826000624       -2.1063937061
 O         -1.1119721552        0.2299654765        1.9847445611
 C         -0.2211787747       -2.0423121976        0.5094998218
 C          1.0271100994       -1.9781619672       -0.3374130460
 C          1.8066707385       -3.0905696098       -0.6306620452
 C          2.9590365836       -2.9570757930       -1.3858662432
 C          3.3735999672       -1.7185526672       -1.8413329536
 C          2.6033815514       -0.5989305425       -1.5485426334
 C          1.4413602649       -0.7401717437       -0.8080104161
 H          0.8371791058        0.1327149732       -0.6160881373
 N          2.9797980769        0.6800090350       -1.9848659042
 S          2.6760846480        2.0068617136       -1.0136359012
 O          1.2771757274        2.3540398791       -1.0527659212
 O          3.5887064474        3.0182325788       -1.5042572513
 C          3.1714094463        1.4961966571        0.6225328228
 C          2.2361825276        1.2427872358        1.6042187008
 C          2.6711562690        0.7951141889        2.8423719737
 C          4.0239723866        0.6105331696        3.0779457856
 C          4.9531402327        0.8790846608        2.0837073889
 C          4.5248013030        1.3227084252        0.8440817795
 H          5.2157493193        1.5533943234        0.0495793507
 H          6.0058086639        0.7408488886        2.2704321255
 H          4.3548225071        0.2584177106        4.0422494404
 H          1.9395085519        0.5886159078        3.6073831993
 H          1.1861056342        1.3866251096        1.4025990383
 H          3.8848665499        0.7331376765       -2.4280890143
 H          4.2749265242       -1.6171795439       -2.4258439235
 H          3.5491183024       -3.8309053650       -1.6164343460
 H          1.5071445256       -4.0629067708       -0.2754843307
 H          0.0480879973       -1.6998378881        1.5210330121
 C         -0.8101094991       -3.4346284867        0.6082646400
 C         -0.3479847527       -4.3821855829        1.6737166202
 C         -1.7069956180       -3.7583039748        1.7645968022
 H         -2.5751806285       -4.3752032610        1.5875581189
 H         -1.8665331680       -2.9822573730        2.4991723522
 H         -0.2847370282       -5.4333068618        1.4355902273
 H          0.4125347914       -4.0357649021        2.3569492367
 H         -1.0773363491       -3.8405510050       -0.3608185002
