  62
        -98.94543409
 C         -1.7756259926       -1.4430840679        0.2098807239
 C         -1.5532350209       -0.1067711581       -0.2036996371
 C         -2.5752602137        0.8623511380        0.2130803144
 C         -3.6226436822        0.4579206543        0.9539036108
 C         -4.7317379118        1.3332602074        1.4717284716
 C         -5.8553970539        1.5851812961        0.4569271894
 C         -5.4969917454        2.5320496549       -0.6891666589
 H         -5.0814369179        3.4536703031       -0.2806753100
 H         -6.4301021077        2.7913653146       -1.1934445155
 C         -4.5269679576        1.9391364870       -1.7206405972
 H         -4.8919612490        2.1530543847       -2.7278601900
 H         -4.5024791426        0.8521370395       -1.6140948201
 C         -3.0989687983        2.4773952201       -1.6311742661
 H         -3.0953794012        3.5438639727       -1.8668258972
 H         -2.4931752805        1.9635462880       -2.3816311547
 C         -2.4316715704        2.2756130899       -0.2643996818
 H         -2.8511685071        2.9681698083        0.4647686936
 H         -1.3630881366        2.4745280629       -0.3710720319
 H         -6.6980256996        2.0143404346        1.0040735818
 H         -6.1799195653        0.6250641197        0.0489245119
 H         -4.3211996158        2.2866653350        1.8052270947
 H         -5.1575834423        0.8171471410        2.3349063862
 O         -3.7868571417       -0.8336630696        1.3479689027
 C         -2.8773703387       -1.8120406935        0.9822792240
 O         -3.1519880277       -2.9537698795        1.4047562546
 O         -0.5617878292        0.2630714529       -0.8833706917
 C         -0.7801273630       -2.5303544841       -0.1590001384
 C          0.5626127689       -2.1501912027        0.4138587260
 C          0.7075765540       -2.1091938471        1.7982217587
 C          1.8968564890       -1.7045608687        2.3731368105
 C          2.9642944881       -1.3191618780        1.5801222404
 C          2.8260300946       -1.3485615103        0.1996359832
 C          1.6361182908       -1.7755597960       -0.3763301281
 H          1.5463731039       -1.7893120350       -1.4506712873
 N          3.8980198998       -0.9433197613       -0.6176482956
 S          4.6187339878        0.5327758560       -0.2938954231
 O          5.3227066626        0.8785457090       -1.5085730783
 O          5.4288208393        0.4149706102        0.8931402422
 C          3.2828752075        1.6783861692       -0.0086144831
 C          2.9438930843        2.0282250974        1.2821864006
 C          1.8877686387        2.9021672443        1.4818038931
 C          1.1944602390        3.4084348991        0.3939042323
 C          1.5448753514        3.0437977238       -0.8966343412
 C          2.5963195824        2.1669596141       -1.1017976055
 H          2.9023909602        1.8682163992       -2.0914932022
 H          0.9992316625        3.4336076985       -1.7409983324
 H          0.3763280378        4.0936791581        0.5536225602
 H          1.6081448723        3.1848692792        2.4841639804
 H          3.5143967783        1.6225208506        2.1014089244
 H          3.6944447978       -1.0160997648       -1.6043134399
 H          3.8974165200       -0.9928876667        2.0097541528
 H          1.9947386342       -1.6832945145        3.4480649615
 H         -0.1335712249       -2.3920261890        2.4169588728
 H         -1.1245307904       -3.4449251384        0.3427291407
 C         -0.7741029691       -2.7658502803       -1.6545262488
 C         -0.2229913691       -4.0460443610       -2.2048904554
 C         -1.6994959101       -3.7909242955       -2.2343682078
 H         -2.1686664748       -3.5831558739       -3.1844847265
 H         -2.3296215676       -4.3379251463       -1.5482085810
 H          0.3204665650       -4.0180936237       -3.1373026814
 H          0.1524309338       -4.7712334029       -1.4988609617
 H         -0.6235004947       -1.8569978654       -2.2253716750
