  62
        -98.94580389
 C         -2.1951894248       -1.1897960367        0.2042712125
 C         -1.8823578782       -0.2686013293       -0.8255900827
 C         -2.6954343023        0.9556703102       -0.8500240301
 C         -3.6608600144        1.1392577190        0.0691449931
 C         -4.5939813271        2.3170736273        0.1527866630
 C         -4.0105429466        3.5284956117        0.8929507883
 C         -2.9343605488        4.3001111204        0.1282482288
 H         -3.3094515841        4.5576130606       -0.8627480045
 H         -2.7657272039        5.2351541441        0.6661453708
 C         -1.5966643440        3.5584287931       -0.0033566269
 H         -1.5592373223        2.7462904863        0.7273876122
 H         -0.7754979295        4.2386994066        0.2358801795
 C         -1.3244729815        2.9884911490       -1.3952114955
 H         -0.3584312677        2.4797039060       -1.3712879663
 H         -1.2527545598        3.8062034743       -2.1154645528
 C         -2.3809576054        1.9906802873       -1.8886733274
 H         -3.2873169064        2.5203822853       -2.1812444825
 H         -1.9819750395        1.4711725439       -2.7631327407
 H         -3.6074362604        3.1927601815        1.8515424400
 H         -4.8367757007        4.2116421528        1.1027346717
 H         -5.4767619298        1.9746027147        0.6971246666
 H         -4.8990591205        2.6154138720       -0.8505565764
 O         -3.9200836341        0.2341041048        1.0505399485
 C         -3.1915827197       -0.9418009484        1.1476609195
 O         -3.5199949448       -1.6713767334        2.1061818598
 O         -0.9794257202       -0.4537142261       -1.6796898044
 C         -1.4468503549       -2.5057741015        0.3031852236
 C          0.0420325978       -2.2946150961        0.4397253082
 C          0.9735465977       -3.1593167904       -0.1229775160
 C          2.3299123143       -2.9441418140        0.0503739523
 C          2.7895327335       -1.8594998715        0.7739779510
 C          1.8670036817       -0.9828084397        1.3309293715
 C          0.5083161644       -1.2131486731        1.1750088445
 H         -0.2043998559       -0.5297957010        1.6212969309
 N          2.3229857809        0.1464902143        2.0306106905
 S          3.5959494394        1.0116904025        1.3699391139
 O          4.8436440161        0.4405061361        1.8153807977
 O          3.3644163784        2.3843696389        1.7652169235
 C          3.4656791577        0.8344700921       -0.4017954846
 C          2.2331944822        0.9934866398       -1.0021413883
 C          2.1248496426        0.8259801832       -2.3724433189
 C          3.2519584631        0.5215974612       -3.1199632927
 C          4.4870173269        0.3814425954       -2.5060570902
 C          4.5966525609        0.5310478596       -1.1328150193
 H          5.5323071679        0.4086543719       -0.6115955952
 H          5.3617796098        0.1456811800       -3.0905247186
 H          3.1630267487        0.3888773614       -4.1865895970
 H          1.1543315467        0.9058449741       -2.8356708102
 H          1.3652171005        1.2224907431       -0.4040479186
 H          1.5874547844        0.7633615360        2.3419116876
 H          3.8422823579       -1.6755740525        0.9172701332
 H          3.0399486210       -3.6276640903       -0.3888595318
 H          0.6356802207       -4.0049731211       -0.6987922716
 H         -1.8033631180       -2.9873341588        1.2264211850
 C         -1.8126068747       -3.3873958991       -0.8754798648
 C         -1.9122113689       -4.8737179131       -0.7141727203
 C         -3.1545502571       -4.0537181382       -0.8849412095
 H         -3.6942537009       -4.1170120803       -1.8178741020
 H         -3.7894245204       -3.8980806823       -0.0242498915
 H         -1.6011346913       -5.5040178712       -1.5336911359
 H         -1.7121011064       -5.2872611972        0.2628906010
 H         -1.4418439402       -2.9962552682       -1.8158476425
