  62
        -98.93050951
 C          2.3913494837        0.6135379128        0.2893143810
 C          2.8030280831       -0.7398827890        0.2070373848
 C          4.1688327141       -1.0023831433       -0.2770802440
 C          4.9557607280        0.0358979131       -0.6147501799
 C          6.3621355740        0.0817536288       -1.1748850534
 C          7.2582705733       -1.1533237327       -1.1359978290
 C          7.6851588230       -1.5897981136        0.2649330946
 H          8.3687854398       -0.8393158785        0.6697430224
 H          8.2360745436       -2.5287121165        0.1770992600
 C          6.5529002270       -1.7715242213        1.2727563370
 H          6.0578561669       -0.8137680547        1.4461258858
 H          6.9971500787       -2.0800134808        2.2230937127
 C          5.5001796336       -2.8115539695        0.8937960987
 H          4.8511999938       -2.9541371464        1.7622410352
 H          5.9857928066       -3.7656183212        0.6797597116
 C          4.5998344989       -2.4406170922       -0.2977406463
 H          3.6841223516       -3.0349513487       -0.2271679165
 H          5.0752078626       -2.6852858928       -1.2446948865
 H          8.1644858742       -0.8972731550       -1.6916496674
 H          6.7873115165       -1.9770103667       -1.6642308903
 H          6.8624214102        0.9040305168       -0.6537144467
 H          6.2549794182        0.3986464968       -2.2181274648
 O          4.5143777979        1.3231747857       -0.5292115305
 C          3.2416017114        1.6545615812       -0.0821387437
 O          3.0242116517        2.8789178326       -0.0729188804
 O          2.0524408675       -1.7013708195        0.5290759477
 C          0.9869659682        0.8671930078        0.8037690748
 C         -0.0186753711        0.9446884246       -0.3161208616
 C          0.2140375955        1.7088061873       -1.4554125326
 C         -0.7425913668        1.7891634416       -2.4510412622
 C         -1.9523818705        1.1297606305       -2.3227066921
 C         -2.1908191038        0.3569905484       -1.1923174256
 C         -1.2192544891        0.2595170965       -0.2057101037
 H         -1.4125331633       -0.3587041379        0.6587361103
 N         -3.3988688879       -0.3387763850       -1.0346179783
 S         -4.0341817564       -0.4654013077        0.5261748548
 O         -3.8750254805        0.7903251582        1.2233858972
 O         -3.4679160096       -1.6265422965        1.1652237905
 C         -5.7531660844       -0.7591558674        0.1566680638
 C         -6.1541223604       -2.0430044209       -0.1621110016
 C         -7.4835421334       -2.2689400549       -0.4814810721
 C         -8.3840692041       -1.2137923011       -0.4778056355
 C         -7.9671468372        0.0685587595       -0.1536526439
 C         -6.6386835426        0.3020435341        0.1656285679
 H         -6.2708255990        1.2798952543        0.4321779505
 H         -8.6704057868        0.8856550249       -0.1478261093
 H         -9.4182172437       -1.3928525596       -0.7261494750
 H         -7.8121619061       -3.2649201440       -0.7310762110
 H         -5.4202997829       -2.8319937120       -0.1423266105
 H         -4.1009916061       -0.0742666465       -1.7119139671
 H         -2.7027957361        1.2065212497       -3.0947438994
 H         -0.5495001141        2.3855116128       -3.3301572834
 H          1.1454038969        2.2475354241       -1.5448154687
 H          0.7386916986       -0.0280227457        1.3977505353
 C          0.8929486211        2.0641800061        1.7407073503
 C          0.2527431040        3.3630728647        1.3650971538
 C         -0.4263203774        2.4527513787        2.3414051873
 H         -0.4526874397        2.7375878404        3.3826531505
 H         -1.3096201480        1.9245125049        2.0101892826
 H          0.7130131431        4.2694729217        1.7273200621
 H         -0.1683350446        3.4560958972        0.3766705000
 H          1.7588247692        2.1303503255        2.3926861885
