  62
        -98.94050891
 C          1.9421979748        1.4350120183       -0.3283224280
 C          1.7007130841        0.2095532165        0.3398307388
 C          2.8827322417       -0.4366918275        0.9286208867
 C          4.0809205808        0.1703365578        0.8742032572
 C          5.3695471247       -0.3587397913        1.4426274291
 C          6.0972296795       -1.3490320474        0.5226942717
 C          5.4474515237       -2.7285708711        0.4044404252
 H          5.2706591316       -3.1321202022        1.4019672327
 H          6.1718441453       -3.3814688738       -0.0866113525
 C          4.1409903967       -2.7470712631       -0.4013450630
 H          4.1589152895       -3.5829511773       -1.1041879903
 H          4.0674081485       -1.8327432019       -0.9947595719
 C          2.8755470927       -2.8919728711        0.4442481418
 H          2.8718763199       -3.8677195329        0.9349991031
 H          2.0132855818       -2.8473711474       -0.2260015886
 C          2.7069481346       -1.8053134821        1.5142267648
 H          3.4135953025       -1.9662637710        2.3279512706
 H          1.6924976920       -1.8667910343        1.9166328035
 H          7.1066351418       -1.4795019085        0.9197321626
 H          6.1872573748       -0.9021733304       -0.4703044406
 H          6.0184774689        0.5056586968        1.5998991525
 H          5.1790652567       -0.8290676632        2.4078976482
 O          4.2553836953        1.3885680004        0.2947138122
 C          3.2025129073        2.0378167076       -0.3315317302
 O          3.5078467778        3.1370954816       -0.8359107816
 H         -1.7405790077        1.3009074935       -1.5935170624
 C         -1.6410268963        1.7208794931       -0.6046975934
 C         -0.4142529917        2.1996038430       -0.1722753649
 C         -0.3222907335        2.7158011878        1.1181270050
 C         -1.4193333135        2.7303663521        1.9570014687
 C         -2.6423129732        2.2482502282        1.5229232490
 C         -2.7481940242        1.7409049751        0.2359122879
 N         -3.9985340283        1.2699965886       -0.2173749377
 S         -4.6840814079       -0.0721936983        0.5113020154
 O         -6.0105564983       -0.1840484035       -0.0533359110
 O         -4.6093840404        0.0793015654        1.9416087915
 C         -3.7014264131       -1.4623300463       -0.0245221047
 C         -4.2529118867       -2.3748539775       -0.9033182841
 C         -3.4758791955       -3.4316218446       -1.3486487319
 C         -2.1626417438       -3.5516759542       -0.9184039951
 C         -1.6242928065       -2.6248149125       -0.0399058477
 C         -2.3977107854       -1.5692036206        0.4156250756
 H         -1.9843624517       -0.8336200719        1.0862131767
 H         -0.5989404565       -2.6911656861        0.2861399905
 H         -1.5545356998       -4.3703444920       -1.2705139222
 H         -3.8928967088       -4.1540497072       -2.0319746782
 H         -5.2760792868       -2.2383792658       -1.2146160159
 H         -4.0423632137        1.1535871326       -1.2204128004
 H         -3.5047039484        2.2384949718        2.1688851247
 H         -1.3254866510        3.1243110461        2.9581089111
 H          0.6323276433        3.0927845752        1.4612172055
 C          0.8262863777        2.1874895430       -1.0322671943
 H          1.1879552927        3.2259899079       -1.1124340683
 C          0.5675267513        1.7045115744       -2.4528652592
 C          1.6435288678        1.0337857879       -3.2521538433
 C          0.4567953444        0.2475701747       -2.7867124012
 H         -0.2732975751       -0.0591172561       -3.5217911776
 H          0.5877007687       -0.4575537884       -1.9814918637
 H          2.5955566292        0.8644614650       -2.7702682452
 H          1.7253322862        1.2746953039       -4.3015205223
 H         -0.0790528999        2.3833728390       -3.0008111194
 O          0.5708895969       -0.3284331733        0.4462508662
