  62
        -98.93806648
 C         -1.4798417322       -1.7661492326        0.1405382222
 C         -1.5808442823       -0.8308914548       -0.9168273968
 C         -2.6896022929        0.1383003752       -0.8252529798
 C         -3.5078884398        0.1049606442        0.2421286835
 C         -4.6441468580        1.0512459254        0.5081609115
 C         -4.1116956818        2.4159729758        0.9883375902
 C         -4.3840619659        3.5710646242        0.0248298643
 H         -5.4342199396        3.8600291334        0.1038132489
 H         -3.7824055753        4.4214329554        0.3524367983
 C         -4.0861914045        3.2900664688       -1.4507267488
 H         -4.8979076965        2.7052748477       -1.8862805586
 H         -4.0877859245        4.2538115067       -1.9644319554
 C         -2.7569718986        2.5814441585       -1.7410517066
 H         -2.3335680302        3.0173099714       -2.6487235048
 H         -2.0408947941        2.7690635425       -0.9414996902
 C         -2.8746831012        1.0671517452       -1.9953223544
 H         -2.0941006866        0.7771059489       -2.7054791861
 H         -3.8381413438        0.8565424155       -2.4693465385
 H         -4.5598428670        2.6619965946        1.9519816590
 H         -3.0368857437        2.3281962499        1.1557853783
 H         -5.2679797860        0.5950803219        1.2771530156
 H         -5.2391255284        1.1698478158       -0.3950414840
 O         -3.3499534834       -0.7791095152        1.2607001230
 C         -2.3545424971       -1.7383679872        1.2318621134
 O         -2.3502313803       -2.5005914541        2.2172460783
 O         -0.8034939958       -0.7946956610       -1.9081205143
 C         -0.4203071634       -2.8603961793        0.1692941744
 C          0.9199905224       -2.2397681000        0.4780121700
 C          1.3753316127       -2.1735825397        1.7911178103
 C          2.5639224229       -1.5343334950        2.0961433228
 C          3.3062949922       -0.9184828502        1.1034667706
 C          2.8470126879       -0.9628495967       -0.2059739078
 C          1.6814071670       -1.6472899932       -0.5176620359
 H          1.3312989193       -1.6617353757       -1.5376210640
 N          3.5346912956       -0.2443098965       -1.2045294214
 S          3.7912663915        1.3753384244       -0.8460101153
 O          3.6768266838        2.0811402401       -2.1033392471
 O          5.0593391553        1.5136965718       -0.1719288672
 C          2.4817428997        1.8401761360        0.2804775926
 C          2.8177391534        2.4283742088        1.4833843003
 C          1.8146982334        2.7378629941        2.3874359505
 C          0.4971266420        2.4319080044        2.0851049533
 C          0.1770903553        1.8408897433        0.8733500784
 C          1.1710754960        1.5536487433       -0.0475205218
 H          0.9250209580        1.0961600161       -0.9930124265
 H         -0.8430173435        1.5756417896        0.6399415313
 H         -0.2848815503        2.6482502894        2.7962273890
 H          2.0630160927        3.2009941579        3.3286859641
 H          3.8580372069        2.6208174471        1.6899372191
 H          3.1024687653       -0.3312035585       -2.1141668496
 H          4.2189360616       -0.3877080913        1.3232681152
 H          2.9080841096       -1.5002005733        3.1183497712
 H          0.7760690427       -2.6147439848        2.5747687357
 H         -0.6922507380       -3.5111935400        1.0101771619
 C         -0.4162079746       -3.6895022581       -1.0991382841
 C          0.2898619479       -5.0108001792       -1.1004288170
 C         -1.2072108626       -4.9606941431       -1.1437176522
 H         -1.7068463075       -5.2242653761       -2.0639817458
 H         -1.7542131478       -5.2416457392       -0.2554463907
 H          0.8209293415       -5.3118820360       -1.9904288302
 H          0.7598414113       -5.3249035262       -0.1807086840
 H         -0.3853696760       -3.1003497206       -2.0062840232
