  62
        -98.94162756
 C          2.1162635765       -0.8453356320       -0.2830094130
 C          2.9707738347       -0.2178626463       -1.2247335356
 C          3.7348562235        0.9395710839       -0.7412265188
 C          3.5344861801        1.3784827971        0.5144622406
 C          4.2780132578        2.5135472934        1.1554190446
 C          5.5330826463        2.0133043434        1.8845171069
 C          6.4078383530        1.0842815422        1.0425910346
 H          7.2772921581        0.8196826489        1.6480692092
 H          5.8598788470        0.1596368845        0.8469935094
 C          6.8758807861        1.6873071191       -0.2892835617
 H          7.9380491776        1.4692838589       -0.4180933190
 H          6.7688490953        2.7722896746       -0.2623468366
 C          6.1558722042        1.1381849776       -1.5223684013
 H          6.1815017936        0.0456190989       -1.5052472839
 H          6.7047230965        1.4639837781       -2.4098417330
 C          4.6985831106        1.5837614888       -1.6977646031
 H          4.6360726123        2.6720654476       -1.6328114525
 H          4.3753133649        1.2799902471       -2.6978891064
 H          6.1169263210        2.8800517326        2.1994427896
 H          5.2196307401        1.4711559701        2.7797046877
 H          4.5529944722        3.2384187288        0.3914384939
 H          3.6148777513        2.9940707667        1.8770089901
 O          2.6490737159        0.8013123917        1.3649119109
 C          1.9221243232       -0.3262241815        0.9986056920
 O          1.1594987105       -0.7421857687        1.8893341509
 O          3.0832447364       -0.6050528846       -2.4190533334
 C          1.3286855046       -2.0578590903       -0.7481412485
 C         -0.1258161986       -1.8969175428       -0.3837890386
 C         -0.8253209651       -2.7815270366        0.4250452925
 C         -2.1542150059       -2.5459218400        0.7326620775
 C         -2.8132663965       -1.4349245401        0.2403657666
 C         -2.1216824730       -0.5408709946       -0.5668145099
 C         -0.7933732601       -0.7823389584       -0.8778536865
 H         -0.2519231368       -0.0800029005       -1.5013024801
 N         -2.7837035489        0.5891174492       -1.0817457717
 S         -3.6234138362        1.5716949475       -0.0079722433
 O         -3.6649957118        2.8700919292       -0.6468728449
 O         -3.0561791044        1.5266209855        1.3196209941
 C         -5.2640020498        0.8789926398       -0.0009215554
 C         -5.8409882678        0.4877716752        1.1912470559
 C         -7.1209959134       -0.0445917614        1.1730699850
 C         -7.7972492018       -0.1747048312       -0.0302705205
 C         -7.2044940314        0.2257797580       -1.2186745947
 C         -5.9258731032        0.7595924134       -1.2074137049
 H         -5.4307820640        1.0863667464       -2.1064578354
 H         -7.7337180575        0.1232753747       -2.1522848948
 H         -8.7921875552       -0.5909064959       -0.0419760917
 H         -7.5828051656       -0.3563264351        2.0961096889
 H         -5.2735607156        0.6022310365        2.1013390256
 H         -2.2031163573        1.1526626130       -1.6864483417
 H         -3.8456877239       -1.2457686137        0.4849089573
 H         -2.6837751383       -3.2370754119        1.3705169100
 H         -0.3233059892       -3.6403751497        0.8387500898
 H          1.4051887797       -2.0226307310       -1.8482838274
 C          1.9192939404       -3.3925718810       -0.3201926286
 C          3.3891546226       -3.5374314483       -0.0655715251
 C          2.4181803207       -3.6447904522        1.0698367043
 H          2.2478521519       -4.6184987114        1.5055506235
 H          2.3572957064       -2.8335445188        1.7779742383
 H          3.8845691770       -4.4330799866       -0.4090960033
 H          3.9984957327       -2.6477591087       -0.1343642222
 H          1.4367282242       -4.2257716583       -0.8217852874
