  62
        -98.93082785
 C         -2.4890254968       -1.2981125985       -0.3451427370
 C         -2.4827127718        0.0920131292       -0.6004925649
 C         -3.7269303878        0.8252755743       -0.2916485242
 C         -4.7670815010        0.1578373638        0.2384766253
 C         -6.1247850826        0.6815387743        0.6334477633
 C         -6.1522429275        2.0132317356        1.3995889421
 C         -6.7150010622        3.1751962256        0.5791618973
 H         -7.5604718148        2.8090034642       -0.0069534875
 H         -7.0987630732        3.9335443838        1.2652878525
 C         -5.7137299139        3.8583941325       -0.3506449010
 H         -6.2692321167        4.5640418126       -0.9728619770
 H         -5.0054520706        4.4384150876        0.2450039782
 C         -4.9208042898        2.9195902359       -1.2621488480
 H         -5.5648540039        2.1336849883       -1.6548167121
 H         -4.5715093172        3.5021864875       -2.1172549530
 C         -3.6889253278        2.3003586525       -0.5851584092
 H         -2.8123088868        2.4297325936       -1.2275893306
 H         -3.4615057320        2.8370438803        0.3405282505
 H         -5.1536675496        2.2528218470        1.7619931887
 H         -6.7893941637        1.8800838526        2.2754568880
 H         -6.7419923537        0.7579958230       -0.2651234469
 H         -6.5648913607       -0.1083254761        1.2463600899
 O         -4.7214589491       -1.1843082045        0.4810134438
 C         -3.5988332820       -1.9394658134        0.2051287534
 O         -3.7084161142       -3.1495137386        0.4888727106
 H          1.0178196276       -0.6584711238       -1.0856080051
 C          0.9156643504       -0.9506402475       -0.0525242723
 C         -0.1707092932       -1.7133991557        0.3427694429
 C         -0.2863988125       -2.0647011962        1.6853203061
 C          0.6608555235       -1.6581441028        2.6052999100
 C          1.7369871951       -0.8821484367        2.2100708526
 C          1.8584766914       -0.5221427774        0.8751859571
 N          2.9278338506        0.2970757744        0.4667074126
 S          4.4752089444       -0.1037283006        1.0090797436
 O          4.7441430278       -1.5031907929        0.7591679682
 O          4.6093949935        0.3255168487        2.3784898156
 C          5.4765833640        0.9230628251       -0.0478401080
 C          5.6532178728        2.2506136300        0.2927307150
 C          6.4053296121        3.0615123587       -0.5420600839
 C          6.9646386215        2.5346771775       -1.6968576846
 C          6.7806348760        1.1996875318       -2.0239998176
 C          6.0280607559        0.3834027099       -1.1942121421
 H          5.8664929646       -0.6617202722       -1.4047585975
 H          7.2195613016        0.7925683721       -2.9206320046
 H          7.5498617176        3.1679182438       -2.3448254156
 H          6.5528023689        4.0992886497       -0.2900856518
 H          5.2065289054        2.6136703610        1.2035445223
 H          2.9260250321        0.4425602585       -0.5339398389
 H          2.4826276044       -0.5568209917        2.9173084584
 H          0.5609889489       -1.9430294361        3.6422145838
 H         -1.1357065645       -2.6583040248        1.9964553592
 C         -1.2565935329       -2.1470897343       -0.6121981695
 H         -1.5400128651       -3.1768882734       -0.3552369997
 C         -0.8551609777       -2.1018610803       -2.0710923119
 C          0.0843569756       -3.1379339905       -2.6088610878
 C         -1.3619828184       -3.1614305099       -3.0005003829
 H         -1.6285710594       -2.8780623020       -4.0076446002
 H         -1.9939209737       -3.9314935604       -2.5825452246
 H          0.8116727525       -2.8423571254       -3.3496546791
 H          0.4379012577       -3.8931688818       -1.9229487970
 H         -0.7824194654       -1.0946216746       -2.4622085442
 O         -1.4918477946        0.7065866001       -1.0756276295
