  62
        -98.94185900
 C         -1.7175679655       -0.1186012696        0.4533990940
 C         -2.8277947563       -0.8396204452        0.9649516932
 C         -4.1412453075       -0.2071624233        0.8036058637
 C         -4.2267152537        1.0171649122        0.2538053134
 C         -5.4905811767        1.8043129643        0.0371507843
 C         -6.2381200389        1.4392508504       -1.2527786588
 C         -6.9488803683        0.0852653149       -1.2324277658
 H         -7.5812053232        0.0217039273       -0.3463401107
 H         -7.6056739664        0.0556588872       -2.1041186311
 C         -6.0069829398       -1.1259205633       -1.2833621388
 H         -5.0201272107       -0.8047823612       -1.6253863035
 H         -6.3790216910       -1.8462048813       -2.0155001157
 C         -5.8550064187       -1.8671067961        0.0451607424
 H         -5.1398525614       -2.6815705129       -0.0966020235
 H         -6.8131019778       -2.3069087721        0.3304924878
 C         -5.3542954200       -0.9921996912        1.2019296328
 H         -6.1465551198       -0.3244765440        1.5394341467
 H         -5.0696999903       -1.6466482430        2.0293512860
 H         -5.5316645626        1.4678926735       -2.0858237417
 H         -6.9866751406        2.2158673117       -1.4262110991
 H         -5.1963470491        2.8545294234       -0.0205614601
 H         -6.1542151290        1.6756465247        0.8927291456
 O         -3.1324689696        1.7083223901       -0.1591388898
 C         -1.8552555219        1.1591126142       -0.0913459625
 O         -0.9667853975        1.9115918902       -0.5314616444
 O         -2.7237210203       -1.9578264508        1.5346184002
 C         -0.3529916407       -0.7744243016        0.5654744478
 C          0.6706008414        0.2021996614        1.0827496552
 C          0.5640290795        0.6540299817        2.3958942179
 C          1.4738589704        1.5578427831        2.9080374314
 C          2.5235071990        2.0134977874        2.1292062407
 C          2.6373004651        1.5704322912        0.8175106177
 C          1.7141930307        0.6706537125        0.3013899352
 H          1.7965989049        0.3820417018       -0.7323435800
 N          3.6880448203        2.0128834611        0.0038044657
 S          4.3517316058        1.0050695589       -1.1451507995
 O          5.6952088362        1.5124021761       -1.3320283446
 O          3.5327742160        0.9599011944       -2.3299697543
 C          4.4146303360       -0.6102488141       -0.3868513141
 C          3.8515652787       -1.6892892796       -1.0365203379
 C          3.9038293964       -2.9377487336       -0.4369430609
 C          4.5137862609       -3.0840565109        0.7990033756
 C          5.0810583678       -1.9915000779        1.4368808804
 C          5.0343061366       -0.7422112964        0.8401380711
 H          5.4733636384        0.1234344882        1.3083147005
 H          5.5572002407       -2.1093419676        2.3968285352
 H          4.5477759569       -4.0555486274        1.2662463252
 H          3.4651499161       -3.7887374769       -0.9335941856
 H          3.3808385565       -1.5289429456       -1.9935076133
 H          4.3775050469        2.5920502597        0.4581713335
 H          3.2377685859        2.7183762407        2.5266401380
 H          1.3723806243        1.9062400186        3.9247863065
 H         -0.2537624475        0.2952154705        3.0058692831
 H         -0.4918003484       -1.5559431205        1.3312662453
 C          0.1000355979       -1.4862811982       -0.7003939846
 C         -0.8889416959       -2.1201597582       -1.6307457360
 C         -0.1168517525       -0.9128650582       -2.0672424740
 H          0.6632763578       -1.0318655775       -2.8057365109
 H         -0.6306352465        0.0334326281       -2.1386992360
 H         -0.6444261634       -3.0758897250       -2.0690158260
 H         -1.9383937107       -1.9990111756       -1.4044582159
 H          1.0292312283       -2.0261236689       -0.5436864268
