  62
        -98.93686747
 C          2.1552459738        0.9798705148       -0.0399391856
 C          2.8776737357        0.2840665810        0.9568978615
 C          3.7098232379       -0.8359394414        0.4924463007
 C          3.7130260746       -1.1496153860       -0.8163225612
 C          4.5680518538       -2.2060615069       -1.4565781065
 C          6.0125807890       -1.6890264267       -1.6127520015
 C          7.0459437567       -2.4425385267       -0.7750927873
 H          7.2493056428       -3.4068914159       -1.2453275419
 H          7.9711439296       -1.8628944963       -0.7985407165
 C          6.6598860244       -2.7058058777        0.6836586953
 H          5.9838161510       -3.5605627054        0.7364756213
 H          7.5727437522       -2.9989874974        1.2064876260
 C          6.0215268597       -1.5281685246        1.4314925986
 H          6.3131121465       -0.5804695587        0.9782725536
 H          6.4084075124       -1.5243041002        2.4525968918
 C          4.4861238881       -1.5917864112        1.5354766149
 H          4.1818876008       -1.1464523589        2.4875921110
 H          4.1639760288       -2.6370308283        1.5456698526
 H          6.0277788411       -0.6303386481       -1.3455089459
 H          6.3101519086       -1.7522841742       -2.6604443058
 H          4.5482584196       -3.1115265295       -0.8540751832
 H          4.1354324315       -2.4259016442       -2.4327085045
 O          2.9781530147       -0.4774441173       -1.7397727815
 C          2.1809837507        0.6002593975       -1.3818789748
 O          1.5600592812        1.1171524852       -2.3282180783
 O          2.8231268293        0.5816180659        2.1822888792
 C          1.2880631005        2.1576551131        0.3643794486
 C         -0.1587943834        1.8848573053        0.0316395565
 C         -0.9906937754        2.8128897013       -0.5801774300
 C         -2.3129710182        2.5005615298       -0.8463298961
 C         -2.8344642100        1.2657991148       -0.5085811091
 C         -2.0160240804        0.3349631952        0.1184570835
 C         -0.6939816285        0.6526520826        0.3878731354
 H         -0.0580484707       -0.0740319738        0.8797719050
 N         -2.5332872208       -0.9273422782        0.4592269976
 S         -3.9679942820       -0.9910662416        1.3297963736
 O         -4.1403249712        0.1843167119        2.1517776123
 O         -3.9325211440       -2.2607391268        2.0225120766
 C         -5.2290770817       -1.0497821781        0.0745605884
 C         -5.1711408797       -2.0665960651       -0.8582600830
 C         -6.1479126076       -2.1310478222       -1.8389667365
 C         -7.1618089497       -1.1849446401       -1.8682963571
 C         -7.2080221675       -0.1725109758       -0.9222582560
 C         -6.2332964286       -0.1017293810        0.0609728622
 H         -6.2255954871        0.6699501453        0.8141718306
 H         -7.9974199364        0.5614023059       -0.9463914286
 H         -7.9204652853       -1.2377022698       -2.6331143494
 H         -6.1150353432       -2.9168800633       -2.5763732582
 H         -4.3690126075       -2.7832852808       -0.7983762676
 H         -1.8481419338       -1.5510183229        0.8604829868
 H         -3.8610151547        1.0169939727       -0.7220571737
 H         -2.9455782468        3.2293904968       -1.3294715822
 H         -0.6033178920        3.7803600496       -0.8537478905
 H          1.3752153119        2.2225712362        1.4598010881
 C          1.8212199166        3.4385151205       -0.2424907958
 C          1.6244307749        4.7479442768        0.4593694402
 C          2.9835694660        4.1189657314        0.4142342741
 H          3.7408716497        4.5660470725       -0.2120768721
 H          3.3727542203        3.6729254926        1.3180918147
 H          1.4508575154        5.6314769669       -0.1361354082
 H          1.0924246118        4.7367283644        1.3987222293
 H          1.7958074485        3.4262344856       -1.3262662328
