  62
        -98.93857525
 C         -1.1059609760       -1.5878565062       -0.2948021309
 C         -2.2429158234       -1.4665488072        0.5455401679
 C         -3.2569687253       -0.4846176878        0.1409624520
 C         -3.0658456941        0.2434358760       -0.9737158237
 C         -4.0336174515        1.2111949831       -1.6062407419
 C         -4.4245676224        2.4639188014       -0.8003656252
 C         -5.6765498787        2.2997985269        0.0692525268
 H         -6.2671671293        3.2164597163        0.0121422756
 H         -6.2944664645        1.5032365547       -0.3469498140
 C         -5.4166680249        2.0262352032        1.5534179167
 H         -5.1229912203        2.9581409002        2.0420547077
 H         -6.3569376636        1.7017671732        2.0044192155
 C         -4.3372287681        0.9867588026        1.8553511102
 H         -3.3493544131        1.4176449242        1.6783639150
 H         -4.3832232784        0.7468163524        2.9194152535
 C         -4.4524597002       -0.3098238833        1.0315488379
 H         -5.3693344180       -0.3111774985        0.4433216190
 H         -4.4726873593       -1.1749552558        1.6973639899
 H         -3.5849724721        2.7895393394       -0.1879340718
 H         -4.6175472312        3.2541572618       -1.5278040001
 H         -3.5564774536        1.5254854564       -2.5369523475
 H         -4.9411422730        0.6624991772       -1.8708822233
 O         -1.9438594925        0.1225033987       -1.7324581405
 C         -0.9416764041       -0.7835411215       -1.4225421160
 O          0.0070272527       -0.7679878991       -2.2310976427
 O         -2.4162844029       -2.1711659253        1.5751021425
 C         -0.0783101921       -2.6438246695        0.0820886023
 C          1.1476385847       -1.9937876941        0.6740441949
 C          1.3287042763       -1.9574838559        2.0525063915
 C          2.4285845397       -1.3257524788        2.6060234580
 C          3.3643230000       -0.7050920013        1.7970499388
 C          3.1824218669       -0.7239352907        0.4210015411
 C          2.0920337321       -1.3764914329       -0.1337100787
 H          1.9509809084       -1.3640717667       -1.2033340088
 N          4.0969570016       -0.0339358338       -0.4099589626
 S          4.0737265184        1.6303837678       -0.1981779293
 O          4.6730629951        2.1902624022       -1.3878800039
 O          4.7233643617        1.9479997315        1.0483978845
 C          2.3411135190        2.0428036176       -0.1061501352
 C          1.7215317116        2.0771337202        1.1268666033
 C          0.3546643799        2.2936137885        1.1810603345
 C         -0.3603448454        2.4761457498        0.0083980057
 C          0.2764723646        2.4481376398       -1.2217244177
 C          1.6406353189        2.2188047714       -1.2820945609
 H          2.1697325001        2.1799475242       -2.2208340405
 H         -0.2880959818        2.5805351503       -2.1305484431
 H         -1.4262479771        2.6372621737        0.0501501353
 H         -0.1488514031        2.3118181613        2.1346445901
 H          2.3144509510        1.9374616478        2.0156195363
 H          3.9482535800       -0.2358246752       -1.3897527907
 H          4.2158313278       -0.1868295982        2.2076602311
 H          2.5567247207       -1.3118999002        3.6776893558
 H          0.5882927401       -2.4184883880        2.6902503016
 H         -0.5579052645       -3.2356107274        0.8730318873
 C          0.2580232055       -3.5685310666       -1.0709605817
 C          0.9070890073       -4.8870499608       -0.7786045572
 C         -0.5177994160       -4.8387833698       -1.2404840711
 H         -0.7488614394       -5.1713835035       -2.2414304158
 H         -1.2954110730       -5.0502692908       -0.5210737110
 H          1.6577602223       -5.2552920415       -1.4609703586
 H          1.0962517169       -5.1311042601        0.2558083214
 H          0.5542713264       -3.0499118788       -1.9735452835
