  62
        -98.94162697
 C          2.1173890807        0.8357792851        0.2856641250
 C          2.9720965762        0.2098230836        1.2282321565
 C          3.7424904375       -0.9429780460        0.7438128295
 C          3.5461293953       -1.3806688478       -0.5129069417
 C          4.2980042136       -2.5092312303       -1.1555620921
 C          5.5494702144       -1.9977260360       -1.8830757590
 C          6.4164743775       -1.0631374276       -1.0391910818
 H          7.2841037044       -0.7907520825       -1.6438662503
 H          5.8612391884       -0.1430677354       -0.8425087835
 C          6.8888699112       -1.6643338545        0.2920143032
 H          6.7915080988       -2.7501756433        0.2629927782
 H          7.9489865814       -1.4370933410        0.4218480835
 C          6.1637121179       -1.1238020391        1.5258924233
 H          6.1798050160       -0.0310035651        1.5108397021
 H          6.7151228676       -1.4464728940        2.4129238424
 C          4.7102156478       -1.5822561144        1.6995481479
 H          4.3839195460       -1.2836134161        2.7002124983
 H          4.6565541188       -2.6708408699        1.6317561550
 H          5.2320243086       -1.4565795978       -2.7774927872
 H          6.1404561894       -2.8591829712       -2.1991927965
 H          4.5780978477       -3.2335674981       -0.3929549905
 H          3.6388123330       -2.9932280685       -1.8784450165
 O          2.6580986260       -0.8072330661       -1.3631922973
 C          1.9268019974        0.3174600328       -0.9967581285
 O          1.1640385062        0.7318397772       -1.8881492811
 O          3.0808403104        0.5955405340        2.4233575961
 C          1.3283974814        2.0475895926        0.7499275825
 C         -0.1252379086        1.8883420359        0.3814689796
 C         -0.8221945082        2.7754311682       -0.4268920560
 C         -2.1511568839        2.5426471577       -0.7363018286
 C         -2.8127542451        1.4322008994       -0.2461419314
 C         -2.1234605237        0.5350811352        0.5595483183
 C         -0.7949735962        0.7736696731        0.8722972668
 H         -0.2553935351        0.0693325228        1.4950635640
 N         -2.7878959134       -0.5948450757        1.0710946364
 S         -3.6352939348       -1.5697873861       -0.0038057593
 O         -3.6764920575       -2.8714517456        0.6282724994
 O         -3.0747472115       -1.5186642166       -1.3339925939
 C         -5.2744967280       -0.8739838534        0.0015069600
 C         -5.9319887673       -0.7658806468        1.2114045860
 C         -7.2094063479       -0.2294516747        1.2326722397
 C         -7.8054007757        0.1844739629        0.0505594810
 C         -7.1336640422        0.0653067849       -1.1564149318
 C         -5.8549288384       -0.4696631223       -1.1845824844
 H         -5.2912567192       -0.5767855421       -2.0979173776
 H         -7.5983192160        0.3869642136       -2.0746023171
 H         -8.7994559853        0.6025155992        0.0699329816
 H         -7.7351566257       -0.1354599149        2.1691392644
 H         -5.4344337611       -1.1030652675        2.1052733582
 H         -2.2083283136       -1.1630088070        1.6724457830
 H         -3.8453866251        1.2454718536       -0.4915609501
 H         -2.6789881140        3.2358213979       -1.3734289241
 H         -0.3182793041        3.6343314533       -0.8381872197
 H          1.4015830680        2.0107903201        1.8502401014
 C          1.9214069213        3.3824693411        0.3254147756
 C          3.3905939706        3.5244502931        0.0653163896
 C          2.4153245569        3.6386982626       -1.0656918134
 H          2.2460490340        4.6146617852       -1.4968166550
 H          2.3492039147        2.8303300160       -1.7766870041
 H          3.8898931327        4.4174173627        0.4102116200
 H          3.9978850317        2.6329155470        0.1281550434
 H          1.4428625057        4.2149608029        0.8319693258
