  62
        -98.94453119
 C          2.6169676398        1.2623240499        0.1214938097
 C          2.6411715101        0.3026865000       -0.9193422905
 C          3.5176466400       -0.8588768400       -0.7033393504
 C          4.2363890797       -0.9501589301        0.4295103298
 C          5.1185520197       -2.1060708002        0.7997276398
 C          4.3454550294       -3.1578167903        1.6075267295
 C          3.0104771696       -3.5625262702        0.9813302191
 H          2.3277553896       -2.7091399502        1.0031615290
 H          2.5728412495       -4.3343968503        1.6183083689
 C          3.1158083100       -4.0885318400       -0.4569672810
 H          2.4946380500       -4.9820900200       -0.5482312912
 H          4.1439446001       -4.3840630300       -0.6695751107
 C          2.6390799903       -3.1062867199       -1.5287734209
 H          1.6431888702       -2.7358906099       -1.2678579012
 H          2.5457535805       -3.6519544697       -2.4718548010
 C          3.5554779903       -1.9025974098       -1.7840454605
 H          3.2062298806       -1.4067316397       -2.6944285506
 H          4.5774025304       -2.2482512898       -1.9517492203
 H          4.1461641092       -2.7531719004        2.6024124595
 H          4.9776988694       -4.0404417403        1.7193584595
 H          5.5228190999       -2.5533119100       -0.1061402701
 H          5.9423222895       -1.7283832103        1.4076133301
 O          4.2009933295       -0.0033877203        1.4004187499
 C          3.3864811795        1.1077026497        1.2798569098
 O          3.4392599192        1.8854395596        2.2531060400
 H         -0.0514089698        1.2240413701       -1.5086274710
 C         -0.4667386300        1.4549358600       -0.5393336911
 C          0.3140739697        2.1185643198        0.3961951592
 C         -0.2234664406        2.3658920097        1.6546434391
 C         -1.5096301307        1.9601843996        1.9639840287
 C         -2.2828441904        1.2945656197        1.0292196184
 C         -1.7495866401        1.0313086799       -0.2253564215
 N         -2.5198663999        0.3331903500       -1.1760183418
 S         -3.1197926800       -1.1630366900       -0.6978941322
 O         -2.2839278302       -1.7728324602        0.3115948379
 O         -3.3043166396       -1.9131845399       -1.9212196723
 C         -4.7188523201       -0.7740112002       -0.0165829626
 C         -5.0480253905       -1.1964233803        1.2563215873
 C         -6.3034736706       -0.8920440004        1.7597307570
 C         -7.2023990304       -0.1750953303        0.9851379269
 C         -6.8568871601        0.2402806399       -0.2923946530
 C         -5.6043320299       -0.0619742401       -0.8020483327
 H         -5.2970797297        0.2389642901       -1.7895913026
 H         -7.5586220799        0.7979661399       -0.8914150631
 H         -8.1780760705        0.0611831996        1.3794724567
 H         -6.5734694809       -1.2141510906        2.7526293069
 H         -4.3134437006       -1.7449681504        1.8242607874
 H         -2.0524380496        0.2457396702       -2.0681408317
 H         -3.2822167005        0.9676198997        1.2666120481
 H         -1.9133402310        2.1607190995        2.9447466486
 H          0.3857099192        2.8618065496        2.3968472793
 C          1.7394895598        2.5063486799        0.0825095996
 H          2.0995527396        3.1461579898        0.8988153898
 C          1.8585857301        3.2765070401       -1.2172798503
 C          1.4035444801        4.7032651801       -1.2568909702
 C          2.8654746901        4.3804549701       -1.3219671198
 H          3.3846091404        4.5157846102       -2.2589475897
 H          3.4737567699        4.5864040600       -0.4531401297
 H          1.0196947399        5.1294797699       -0.3424091202
 H          0.9162461904        5.0637967602       -2.1496627503
 H          1.6990666504        2.6706058402       -2.0990224404
 O          1.9784875404        0.3890625102       -1.9886365306
