  62
        -98.94102752
 C         -2.7117006415       -0.9749329990       -0.4003665772
 C         -2.1235734670        0.0947186688       -1.1186630260
 C         -2.7795981955        1.4031669785       -0.9734358943
 C         -3.8831786438        1.5131228951       -0.2129851695
 C         -4.6133658292        2.7941673186        0.0650090617
 C         -4.0828933747        3.4684481321        1.3379537040
 C         -2.5591323259        3.5866030417        1.3877768925
 H         -2.3033096392        4.1070865091        2.3134584094
 H         -2.1209034890        2.5873758191        1.4548881987
 C         -1.9391845563        4.3301956759        0.1965479071
 H         -1.1873802842        5.0265211999        0.5739446891
 H         -2.7040043742        4.9198150477       -0.3107127089
 C         -1.2368906184        3.4277250669       -0.8199578815
 H         -0.5333269784        2.7701123792       -0.3005177782
 H         -0.6532590902        4.0645704094       -1.4904666382
 C         -2.1592433469        2.5671608145       -1.6934416687
 H         -2.9285088302        3.1961705770       -2.1458548652
 H         -1.5516518541        2.1355878117       -2.4940269731
 H         -4.5280713430        4.4621159790        1.4137954359
 H         -4.4075843993        2.8830884749        2.2013306822
 H         -4.5023524288        3.4626174314       -0.7863614147
 H         -5.6714376361        2.5642856356        0.2008152513
 O         -4.4377128172        0.4587089745        0.4371963220
 C         -3.8549473185       -0.7946355258        0.3842514038
 O         -4.4457401441       -1.6609585062        1.0596109204
 O         -1.1075046702       -0.0154321482       -1.8552843297
 C         -2.1064012601       -2.3720407711       -0.3813856941
 C         -0.8697020836       -2.3208615761        0.4832733484
 C         -0.9571769507       -2.6246518900        1.8381632185
 C          0.1448408408       -2.4909833061        2.6633763429
 C          1.3532070815       -2.0421088864        2.1592932810
 C          1.4464973829       -1.7275995529        0.8103292906
 C          0.3465700972       -1.8853315498       -0.0210874528
 H          0.4235953946       -1.6150775459       -1.0627254158
 N          2.6672029529       -1.2458520650        0.2827024351
 S          3.2406897706        0.1722405066        1.0079988629
 O          3.7619828612       -0.1638011024        2.3094292414
 O          2.2226773016        1.2003362848        0.9829523432
 C          4.5809232307        0.5871564422       -0.0901693469
 C          5.8123107890       -0.0065288039        0.1106429042
 C          6.8465061640        0.2854483096       -0.7641788346
 C          6.6324993229        1.1594893523       -1.8196433685
 C          5.3907747805        1.7475849938       -2.0079905768
 C          4.3514343335        1.4586097843       -1.1375026052
 H          3.3715148502        1.8973524467       -1.2428179406
 H          5.2271870699        2.4279947907       -2.8282367697
 H          7.4387101606        1.3860134734       -2.4993509091
 H          7.8137755490       -0.1683805927       -0.6209136343
 H          5.9323994661       -0.6727227819        0.9486876015
 H          2.5745667191       -1.0749885259       -0.7116456062
 H          2.2114261928       -1.9062113916        2.7969235845
 H          0.0613756659       -2.7303218451        3.7130610755
 H         -1.9075489872       -2.9442369329        2.2427052325
 H         -2.8442817202       -3.0102958980        0.1218644925
 C         -1.8534753597       -2.9266408919       -1.7678273655
 C         -1.5884808397       -4.3929954205       -1.9243620358
 C         -2.8846182347       -3.8104775586       -2.3997407091
 H         -3.0540047012       -3.7243662911       -3.4625639476
 H         -3.7790029138       -4.0209334740       -1.8314687207
 H         -0.8664279368       -4.7109335296       -2.6606078219
 H         -1.6027376604       -4.9991338473       -1.0311079114
 H         -1.3253692208       -2.2440667844       -2.4201190215
