  62
        -98.94595860
 C         -1.0544781377       -1.2764673084       -0.0996117371
 C         -1.7573624030       -0.6194864532        0.9444509584
 C         -2.5826314561        0.5290616585        0.5572550726
 C         -2.6032034190        0.9276422934       -0.7272368491
 C         -3.3504954232        2.1131571589       -1.2753056377
 C         -4.8196614770        1.8241393604       -1.6124558986
 C         -5.7408048896        1.6510474717       -0.4040580062
 H         -5.6245163807        2.5044989022        0.2646044486
 H         -6.7661283703        1.6681803539       -0.7787050798
 C         -5.5215504494        0.3474116389        0.3764117943
 H         -6.4872188405       -0.1184333676        0.5852441633
 H         -4.9553167845       -0.3545745415       -0.2402610548
 C         -4.8039297599        0.5223832245        1.7147569663
 H         -5.4252486669        1.1172882783        2.3876639234
 H         -4.6714593333       -0.4653709022        2.1631842555
 C         -3.4234888567        1.1847060552        1.6118315746
 H         -2.9144461915        1.0586658352        2.5707007712
 H         -3.5340900656        2.2495492869        1.4057216806
 H         -5.1882945508        2.6627049878       -2.2078479992
 H         -4.8644369146        0.9290106871       -2.2373887687
 H         -3.2943607682        2.9412546089       -0.5678159729
 H         -2.8363267788        2.4062933876       -2.1936404656
 O         -1.9032986282        0.2861205224       -1.6987701847
 C         -1.1348333025       -0.8422917651       -1.4240439526
 O         -0.6017308660       -1.3313253926       -2.4384936314
 O         -1.6981102855       -0.9817946323        2.1491580875
 C         -0.2076201153       -2.4646386900        0.3162600536
 C          1.2174673846       -2.0590465622        0.6153240342
 C          1.8506436521       -2.5191864916        1.7646630792
 C          3.1616833845       -2.1729355095        2.0352187353
 C          3.8586034198       -1.3437078995        1.1753949319
 C          3.2337053396       -0.8728780311        0.0265973919
 C          1.9248454880       -1.2404139767       -0.2534292983
 H          1.4638025248       -0.8817381679       -1.1606497872
 N          3.9120359867       -0.0129728813       -0.8560978178
 S          3.1336372797        1.3868034119       -1.3440517529
 O          2.1651184047        1.1034476021       -2.3699537647
 O          4.2100376125        2.2803525243       -1.7183683061
 C          2.3339499659        1.9871131860        0.1325605835
 C          0.9681486649        1.8602166211        0.2743737322
 C          0.3737838694        2.2845253889        1.4522631245
 C          1.1539920749        2.8215469837        2.4639732594
 C          2.5260400741        2.9471792566        2.3051276623
 C          3.1246496259        2.5242472064        1.1301627407
 H          4.1853968989        2.6168373888        0.9626074701
 H          3.1278280008        3.3698855064        3.0932711816
 H          0.6856168809        3.1443393212        3.3802219406
 H         -0.6924669967        2.1782425576        1.5734896924
 H          0.3937526979        1.4343026128       -0.5335820744
 H          4.8620640125        0.1923602710       -0.5796083142
 H          4.8784688751       -1.0615469856        1.3873910795
 H          3.6417571661       -2.5404909371        2.9289064354
 H          1.3033533612       -3.1452811477        2.4530469115
 H         -0.6517735441       -2.8190446324        1.2571435188
 C         -0.2121752228       -3.6133537181       -0.6738616680
 C          0.0347489873       -5.0067596158       -0.1818603161
 C         -1.3335240606       -4.6063131144       -0.6441259835
 H         -1.7012175191       -4.9932372159       -1.5825177529
 H         -2.1032726618       -4.4672678443        0.1011945721
 H          0.6124232114       -5.6742563469       -0.8024621073
 H          0.1881050282       -5.1471935374        0.8770896304
 H          0.1863415914       -3.3428713408       -1.6432655580
