  62
        -98.94261212
 C         -1.4468307639       -1.0734020112        0.0125017695
 C         -2.7875293728       -1.5345455674        0.0393077219
 C         -3.7897994761       -0.5884014173        0.5475009464
 C         -3.3875105996        0.6134979798        0.9982270789
 C         -4.3044840331        1.6974443528        1.4845114161
 C         -4.7162255528        2.6315481268        0.3378749664
 C         -5.2138616394        1.8988267684       -0.9081244123
 H         -5.5035387392        2.6575503612       -1.6383901497
 H         -4.3869771639        1.3335464614       -1.3442936112
 C         -6.3966733307        0.9526423403       -0.6585496712
 H         -6.8766512509        1.2006497920        0.2888883475
 H         -7.1381138272        1.1028972268       -1.4461879713
 C         -6.0329049780       -0.5333691794       -0.6674577887
 H         -6.9608073133       -1.1107413237       -0.6994122313
 H         -5.4721256694       -0.7680835181       -1.5760614077
 C         -5.2262987056       -1.0295095143        0.5392938303
 H         -5.7266277887       -0.7322000129        1.4632599125
 H         -5.2037471094       -2.1225512234        0.4971453057
 H         -3.8514599772        3.2363881459        0.0560111977
 H         -5.4962035977        3.3025056290        0.7023805992
 H         -5.1870488206        1.2456065621        1.9332252457
 H         -3.7784210788        2.2780110627        2.2439898225
 O         -2.0867951805        0.9952147284        1.0214735039
 C         -1.0791461416        0.1704684917        0.5301865527
 O          0.0589639006        0.6596986669        0.6254344225
 H          2.1739551852       -1.0829810926       -0.9975027534
 C          2.0410962438       -1.5221045395       -0.0237636643
 C          0.8136099239       -2.0412314529        0.3550063202
 C          0.6847685216       -2.5944384131        1.6264487824
 C          1.7560675415       -2.6189818710        2.4976628328
 C          2.9769747355       -2.0872625427        2.1214348706
 C          3.1163340169       -1.5355824492        0.8536481305
 N          4.3483047177       -1.0102845826        0.4425335352
 S          4.4586985768        0.2430124870       -0.6503887457
 O          4.1402382383       -0.2250384300       -1.9769780279
 O          5.8106061241        0.7340105695       -0.4731809992
 C          3.3086764529        1.5063698999       -0.1426278778
 C          3.3183030729        1.9247443352        1.1719172459
 C          2.4584036219        2.9386958130        1.5569894707
 C          1.6123589759        3.5184205894        0.6256468653
 C          1.6188775919        3.0903991697       -0.6910431657
 C          2.4739526965        2.0736454404       -1.0808874888
 H          2.5013450668        1.7034609124       -2.0934494976
 H          0.9533171176        3.5365287014       -1.4135770459
 H          0.9367739021        4.3026726775        0.9299047608
 H          2.4438209248        3.2692257025        2.5834582281
 H          3.9885274260        1.4590279008        1.8764571176
 H          5.0541554624       -0.9492473186        1.1606951606
 H          3.8147583179       -2.0992710504        2.8018203080
 H          1.6404317911       -3.0492878817        3.4810934226
 H         -0.2734035536       -2.9975444103        1.9254803241
 C         -0.3920731860       -2.0106157354       -0.5478974245
 H         -0.8651857556       -3.0065995799       -0.5208639136
 C         -0.0370330842       -1.7372119322       -2.0018043612
 C         -1.0588653420       -1.2052349424       -2.9601110757
 C          0.0985840235       -0.3486443413       -2.5475227806
 H          0.8834198099       -0.1612679172       -3.2665697997
 H         -0.0806405694        0.4736560438       -1.8722777882
 H         -1.0778570028       -1.6011521874       -3.9643751597
 H         -2.0360840008       -0.9672351412       -2.5657133879
 H          0.6508858061       -2.4795488277       -2.3963337915
 O         -3.1298973419       -2.6862403921       -0.3417624118
