  62
        -98.94626410
 C          1.7973327432        1.0883063300       -0.3015548435
 C          3.1497311285        1.3078129691        0.0545895595
 C          4.0977583920        0.2722942247       -0.3711475854
 C          3.6580045077       -0.7868471421       -1.0751661769
 C          4.5061839134       -1.9120059853       -1.6031485400
 C          4.7797590940       -3.0217078596       -0.5785697789
 C          5.7628565533       -2.6527710679        0.5330670771
 H          6.6766784649       -2.2542680106        0.0912870250
 H          6.0270770213       -3.5789447313        1.0473606360
 C          5.2097858209       -1.6574906884        1.5626481220
 H          5.4487980131       -2.0050997548        2.5702554420
 H          4.1205468862       -1.6224160183        1.4862645860
 C          5.7611037057       -0.2376419204        1.4313688513
 H          6.8340478382       -0.2405186059        1.6357677672
 H          5.2773281950        0.3892857683        2.1848352845
 C          5.5275572791        0.4066625765        0.0584016808
 H          6.1917797084       -0.0366351246       -0.6831485653
 H          5.7523618639        1.4731781268        0.1371135808
 H          5.1864539621       -3.8759126467       -1.1247441943
 H          3.8298192025       -3.3310480622       -0.1367781715
 H          5.4519289334       -1.5154376698       -1.9735256660
 H          3.9586637449       -2.3457502419       -2.4426946908
 O          2.3515430110       -0.9511321061       -1.4138150451
 C          1.3879683451       -0.0333518558       -1.0210261946
 O          0.2297199124       -0.3265478784       -1.3718715238
 O          3.5432368633        2.3172668103        0.6979540830
 C          0.7527754161        2.1082651622        0.1140871670
 C         -0.2957083276        1.4494601742        0.9751346638
 C          0.1134519498        0.7628726529        2.1168578313
 C         -0.8060859670        0.1403075440        2.9372685014
 C         -2.1560182545        0.1805500879        2.6317413983
 C         -2.5757288844        0.8658710240        1.4993296696
 C         -1.6492122803        1.5046923710        0.6843203641
 H         -2.0073358066        2.0228978467       -0.1887791347
 N         -3.9435699578        0.9475877700        1.1745991854
 S         -4.4746875971        0.4050232740       -0.3184969430
 O         -3.8389093074        1.1543666377       -1.3695758710
 O         -5.9169919124        0.5006632649       -0.2477469443
 C         -3.9999688813       -1.3140761278       -0.3662069498
 C         -4.9481992965       -2.2642759215       -0.0365698819
 C         -4.5810855343       -3.5992634946       -0.0058927814
 C         -3.2732162265       -3.9600486573       -0.2944012775
 C         -2.3342322552       -2.9934227246       -0.6180457064
 C         -2.6939841305       -1.6543961114       -0.6557764419
 H         -1.9708474604       -0.8952622586       -0.9100878110
 H         -1.3142033890       -3.2616143447       -0.8441534496
 H         -2.9835469779       -4.9988819902       -0.2685205359
 H         -5.3115503003       -4.3521065894        0.2433103773
 H         -5.9532823517       -1.9371512794        0.1759534586
 H         -4.5518385289        0.5792879444        1.8930775341
 H         -2.8777928070       -0.3100023261        3.2672119912
 H         -0.4716447021       -0.3857346839        3.8186373795
 H          1.1689947559        0.7267131714        2.3504348665
 H          1.2918954113        2.8422744122        0.7316096124
 C          0.1897366930        2.8180232236       -1.0985672415
 C         -0.3603908545        4.2056993341       -0.9677019343
 C          0.9408310388        3.9787416361       -1.6754371472
 H          0.9724719262        4.0904812316       -2.7489272215
 H          1.8529156301        4.2753371458       -1.1781685549
 H         -1.2270873523        4.4713987880       -1.5543396346
 H         -0.3330064892        4.6637763452        0.0095093370
 H         -0.2960094952        2.1433604533       -1.7955666073
