  62
        -98.93826045
 C         -0.2688712719       -1.7985438334       -0.9037620717
 C         -1.3533412907       -2.1958729030       -0.0853224709
 C         -2.6167569013       -1.4470682164       -0.2149319530
 C         -2.6730525317       -0.4309681368       -1.0943522507
 C         -3.8437210188        0.4665452121       -1.3978300361
 C         -4.0690962238        1.5535511528       -0.3307932332
 C         -3.8099220196        1.1134431575        1.1088957926
 H         -2.8034250539        0.6949243849        1.1897402836
 H         -3.8251037370        2.0073044703        1.7398359981
 C         -4.8305645599        0.1290655840        1.6764505010
 H         -5.8054099924        0.6211792540        1.7262603440
 H         -4.5238265586       -0.1062741103        2.6989846571
 C         -4.9994091442       -1.1820011153        0.9093052112
 H         -5.5119791484       -1.0104465307       -0.0333014463
 H         -5.6518204775       -1.8252564006        1.5076197820
 C         -3.7106122937       -1.9675257702        0.6841930938
 H         -3.2305687538       -2.1467988435        1.6532178901
 H         -3.9720481569       -2.9618664326        0.3006172918
 H         -5.0923488629        1.9228831067       -0.4196636338
 H         -3.3943265638        2.3860569601       -0.5447959083
 H         -4.7365978073       -0.1381684265       -1.5322196419
 H         -3.6274429554        0.9534766479       -2.3511909898
 O         -1.5996939393       -0.0630997698       -1.8449793199
 C         -0.3692039351       -0.7001141332       -1.7576713567
 O          0.5026958035       -0.1971713300       -2.4874050713
 O         -1.2727354307       -3.1598140289        0.7259667087
 C          1.0327924014       -2.5579002085       -0.7134759902
 C          1.7682114665       -2.0025244819        0.4807023024
 C          2.3852080914       -2.8322399120        1.4094092130
 C          3.0215858328       -2.2959371136        2.5152742151
 C          3.0250834691       -0.9296355555        2.7335195420
 C          2.4041920304       -0.0933146284        1.8133572463
 C          1.8116224241       -0.6310816032        0.6819999145
 H          1.3460521954        0.0274152263       -0.0348448011
 N          2.3518056120        1.2970563344        1.9956123607
 S          0.9222062047        2.0824640167        1.5964151408
 O          0.9429853928        3.2930346938        2.3941391533
 O         -0.2253774425        1.2264785934        1.7891020024
 C          1.0951651945        2.5322544272       -0.1148517960
 C         -0.0469417535        2.6165008207       -0.8838596061
 C          0.0619451491        3.0011394193       -2.2095233831
 C          1.3073027065        3.2976609629       -2.7385701536
 C          2.4449087638        3.2149235000       -1.9510014802
 C          2.3425095950        2.8321564979       -0.6236486308
 H          3.2070297113        2.7477944331        0.0139011679
 H          3.4126807856        3.4402236641       -2.3696839257
 H          1.3911708650        3.5862956384       -3.7744202536
 H         -0.8218921534        3.0512602457       -2.8250359048
 H         -0.9927676644        2.3539434738       -0.4358542631
 H          2.7301791710        1.6305619210        2.8707205121
 H          3.4922175462       -0.5129239083        3.6128339930
 H          3.4991271932       -2.9497993858        3.2291368828
 H          2.3439197183       -3.9029936450        1.2738813631
 H          0.7348996168       -3.5888863591       -0.4615305070
 C          1.8988837403       -2.6212999430       -1.9618061357
 C          3.1311812660       -1.7919646452       -2.1418206955
 C          3.2521868935       -3.2669723686       -1.9131047123
 H          3.5509439886       -3.8965652632       -2.7373994807
 H          3.6163257986       -3.5939923609       -0.9512068916
 H          3.3260494889       -1.3942801911       -3.1254273213
 H          3.4120214001       -1.1250676577       -1.3416493652
 H          1.3065563263       -2.7993334191       -2.8530868481
