  62
        -98.94824974
 C         -1.1813203381       -1.2164079166       -0.0217330855
 C         -1.9186277261       -0.6551716332        1.0476159045
 C         -2.5541818083        0.6420395042        0.7801818725
 C         -2.3940848230        1.2168147076       -0.4258439521
 C         -3.0208767389        2.5137585184       -0.8473233525
 C         -4.3850134709        2.2828678844       -1.5124423476
 C         -5.3135652560        1.3681001087       -0.7140460536
 H         -6.2560313947        1.3023487950       -1.2617585598
 H         -4.8868448940        0.3629379273       -0.6856950294
 C         -5.5888038950        1.8398812547        0.7205614541
 H         -5.3342291921        2.8957429744        0.8197013077
 H         -6.6576285603        1.7437877644        0.9226929670
 C         -4.8586913143        1.0409632402        1.8019856555
 H         -5.0350696953       -0.0271788148        1.6513951422
 H         -5.2867311622        1.3091779951        2.7716404756
 C         -3.3443806224        1.2698001930        1.8931648526
 H         -3.1349124379        2.3400075617        1.9585445290
 H         -2.9894799836        0.7986148845        2.8149714232
 H         -4.8648917110        3.2519704564       -1.6600012512
 H         -4.2204069287        1.8311751825       -2.4931903724
 H         -3.1327160256        3.1553738023        0.0247271410
 H         -2.3561489818        3.0039080764       -1.5606720070
 O         -1.6686282837        0.6532645526       -1.4246826104
 C         -1.0338588514       -0.5703633422       -1.2483161618
 O         -0.3874472543       -0.9587218445       -2.2377662745
 H          1.0368257885       -0.7549433400        1.4280527303
 C          1.6271245248       -1.3778052121        0.7711260642
 C          1.0074254533       -2.3787404584        0.0310567559
 C          1.7900056020       -3.1796715543       -0.7900525956
 C          3.1555441505       -2.9704819279       -0.8759403519
 C          3.7655318825       -1.9652474733       -0.1495407154
 C          2.9934187392       -1.1644487189        0.6855605211
 N          3.5945469607       -0.1576356959        1.4622733179
 S          2.9264700850        1.3713129612        1.5334911367
 O          3.9681141379        2.1861570997        2.1208394270
 O          1.6699023889        1.3405920943        2.2370520966
 C          2.6818938547        1.8429300056       -0.1665039733
 C          3.7777041819        2.2452249695       -0.9054818952
 C          3.6034555520        2.5580393811       -2.2433029181
 C          2.3453812154        2.4547034443       -2.8182499172
 C          1.2554171011        2.0530364976       -2.0623284433
 C          1.4243269055        1.7432907009       -0.7224443955
 H          0.6011738711        1.4261193217       -0.1007374343
 H          0.2778577989        1.9554975463       -2.5072881515
 H          2.2098176953        2.6893994977       -3.8621993098
 H          4.4464468123        2.8765605716       -2.8350799509
 H          4.7358522127        2.3226634926       -0.4176647840
 H          4.5967291744       -0.0967858771        1.3509534620
 H          4.8302530423       -1.8024515213       -0.2185062121
 H          3.7516627758       -3.5967405302       -1.5218871838
 H          1.3314135224       -3.9660933220       -1.3659763905
 C         -0.4845260946       -2.5488076855        0.1828997636
 H         -0.6870194170       -2.8251389226        1.2288152612
 C         -1.0776951598       -3.6064920983       -0.7238585907
 C         -1.0354485803       -5.0505028503       -0.3250622773
 C         -2.3336723636       -4.3029461509       -0.2966968205
 H         -3.0783978653       -4.5295167581       -1.0449428538
 H         -2.7490335890       -4.0318811289        0.6632723932
 H         -0.8914013420       -5.7944902099       -1.0938283049
 H         -0.5714407539       -5.2946670424        0.6185933410
 H         -0.9765418272       -3.3599027090       -1.7746326917
 O         -2.0386577070       -1.2128970488        2.1726778235
