  62
        -98.93922488
 C         -1.2309155248       -1.5877396636       -0.3098736064
 C         -2.4153397532       -1.4487456777        0.4566519482
 C         -3.4008567536       -0.4479522943        0.0070527635
 C         -3.1357340875        0.2617533966       -1.1050323094
 C         -3.9692011446        1.3479691229       -1.7310200500
 C         -3.8765837173        2.6892082930       -0.9796355232
 C         -3.8361031584        2.5786048661        0.5431653414
 H         -3.0262959711        1.9077729716        0.8367873750
 H         -3.5998178933        3.5681076818        0.9427914496
 C         -5.1388363788        2.1162812169        1.1914808570
 H         -5.9213520142        2.8492408457        0.9811889678
 H         -4.9803866077        2.1001871482        2.2727269144
 C         -5.6453852039        0.7399330037        0.7605815136
 H         -6.0496161386        0.7760787805       -0.2473783827
 H         -6.4781870822        0.4783490016        1.4201593661
 C         -4.6255100380       -0.3882468875        0.8873028195
 H         -4.2518598311       -0.4169106149        1.9169275897
 H         -5.1451745103       -1.3433437986        0.7417410202
 H         -2.9627221451        3.1940702365       -1.3020718058
 H         -4.7219383129        3.3111878984       -1.2779153597
 H         -3.5898408519        1.4899727172       -2.7454707693
 H         -5.0004195607        1.0150829043       -1.8100027804
 O         -1.9878755563        0.0894342848       -1.8181986388
 C         -1.0117092242       -0.8224980114       -1.4528945112
 O         -0.0323192404       -0.8396135748       -2.2243634822
 O         -2.6464786127       -2.1368392417        1.4866408690
 C         -0.2024070280       -2.5933310422        0.1828764136
 C          0.8530802001       -1.8706706572        0.9881926471
 C          0.6812100126       -1.7520665889        2.3649259018
 C          1.6194405482       -1.1007234343        3.1424900370
 C          2.7464713142       -0.5505208864        2.5596049077
 C          2.9236463069       -0.6508339619        1.1844725194
 C          1.9785852697       -1.3049979337        0.4037855633
 H          2.1288694502       -1.3589685768       -0.6626518403
 N          4.0715697819       -0.1028344486        0.5826758187
 S          3.8954558314        0.9176463377       -0.7342965734
 O          3.5910130531        0.1568960903       -1.9164673944
 O          5.1314898996        1.6719580337       -0.7656563343
 C          2.5462884416        1.9858298209       -0.2714105727
 C          2.7999394477        2.9987147991        0.6338597368
 C          1.7477686532        3.7845615077        1.0733753970
 C          0.4630884016        3.5382312180        0.6115846955
 C          0.2281506233        2.5204021996       -0.2985493200
 C          1.2776353138        1.7341091611       -0.7484497296
 H          1.1247033678        0.9347028278       -1.4564085159
 H         -0.7680280757        2.3215896674       -0.6617463065
 H         -0.3600677496        4.1422838303        0.9596531121
 H          1.9285232915        4.5814592642        1.7765874667
 H          3.8137050706        3.1618587217        0.9623881058
 H          4.7183262856        0.3036988274        1.2443342077
 H          3.4880836612       -0.0486988655        3.1623815054
 H          1.4741620032       -1.0218062091        4.2090054402
 H         -0.2060533199       -2.1727162657        2.8157371997
 H         -0.7539240061       -3.2405724026        0.8792451184
 C          0.3798045922       -3.4634349589       -0.9097140827
 C          1.0546180337       -4.7451645336       -0.5257072411
 C         -0.2725706207       -4.7758828818       -1.2208389753
 H         -0.3109639862       -5.0997621388       -2.2501488000
 H         -1.1436202780       -5.0516288781       -0.6441354554
 H          1.9321072791       -5.0488425832       -1.0757862693
 H          1.0828738407       -4.9995983725        0.5231933975
 H          0.7903157691       -2.9094050717       -1.7436819272
