  62
        -98.94914458
 C          1.2817876073        1.5389589634        0.5427233961
 C          2.2284998135        1.2008658670       -0.4546057742
 C          3.2051531435        0.1711085330       -0.0808185425
 C          3.1637931079       -0.3805914359        1.1452473695
 C          4.0765202680       -1.4583487506        1.6626528463
 C          3.6325161540       -2.8735816270        1.2665981680
 C          3.8686222530       -3.2430044351       -0.1985421558
 H          4.9010335791       -3.0182234954       -0.4699743651
 H          3.7363219354       -4.3238548589       -0.2794747353
 C          2.9118999346       -2.5589691265       -1.1855139427
 H          2.0329683151       -2.1918526359       -0.6486100458
 H          2.5465817775       -3.2958941685       -1.9054446251
 C          3.5353219984       -1.4159338100       -1.9880465398
 H          4.3055627212       -1.8157170922       -2.6521615405
 H          2.7528259888       -0.9695999062       -2.6074036171
 C          4.1578007057       -0.3021166720       -1.1363284835
 H          5.0880031859       -0.6472719765       -0.6857252308
 H          4.3764042296        0.5452191988       -1.7911133180
 H          2.5694307180       -2.9850413708        1.4964241227
 H          4.1860917433       -3.5781519084        1.8921001945
 H          5.0945102708       -1.2817378979        1.3143976698
 H          4.0621202667       -1.3846540628        2.7522679579
 O          2.2593459864       -0.0039772794        2.0872672916
 C          1.2687743308        0.9184871375        1.7909529924
 O          0.4464758618        1.1038941329        2.7131850463
 H         -0.3722557908       -0.0939546825       -0.1739370590
 C         -0.8847733521        0.5159746960       -0.9002630103
 C         -0.7123101410        1.8921565142       -0.8807913025
 C         -1.3606680584        2.6505066396       -1.8477986899
 C         -2.1435338547        2.0330866190       -2.8087348049
 C         -2.3134143501        0.6598495680       -2.8201482721
 C         -1.6724097003       -0.1064255160       -1.8535855194
 N         -1.7959983884       -1.5030967646       -1.8170284681
 S         -1.8110011752       -2.2986618202       -0.3458478053
 O         -0.4966306762       -2.3088611454        0.2451640094
 O         -2.3717971320       -3.5969361966       -0.6549506786
 C         -2.9660514533       -1.3727904321        0.6498943331
 C         -2.5355769386       -0.5488400898        1.6690448755
 C         -3.4743203118        0.1941072002        2.3692876712
 C         -4.8177522423        0.1012403224        2.0434609825
 C         -5.2363095761       -0.7395737474        1.0226818707
 C         -4.3036611293       -1.4805022395        0.3172308217
 H         -4.5885352376       -2.1548292913       -0.4740131668
 H         -6.2825925794       -0.8161392074        0.7746577198
 H         -5.5410852825        0.6848216105        2.5907118512
 H         -3.1377775407        0.8432253099        3.1621554830
 H         -1.4860224457       -0.4856414416        1.9119587124
 H         -2.4583509459       -1.8963499853       -2.4686651315
 H         -2.9228652088        0.1840473813       -3.5727731230
 H         -2.6338614923        2.6324149620       -3.5606965694
 H         -1.2452438447        3.7220978713       -1.8545336311
 C          0.1443489251        2.4873932086        0.2138970218
 H         -0.4731668813        2.5487650503        1.1232015626
 C          0.6627280733        3.8714862648       -0.1166414374
 C         -0.1428522195        5.0852085301        0.2349574255
 C          1.1015039317        4.7632072054        1.0047838841
 H          1.9754648305        5.3805311195        0.8615361354
 H          0.9986721980        4.3802793192        2.0100583375
 H         -0.1217121337        5.9299375732       -0.4370146317
 H         -1.0923577531        4.9325829507        0.7255834817
 H          1.2482153523        3.8884403808       -1.0282038428
 O          2.2516129283        1.7191731882       -1.6012308773
