  62
        -98.93744158
 C         -1.9407663238       -1.4863630104        0.2819695286
 C         -1.9979705846       -0.3432291837        1.1182202232
 C         -2.9812049412        0.6958791994        0.7715660875
 C         -3.7546575440        0.5294249698       -0.3175535535
 C         -4.8680864866        1.3799665806       -0.8926113850
 C         -5.0833471282        2.8122679662       -0.4113924433
 C         -3.9727278230        3.7884515195       -0.7986440894
 H         -4.0182724996        3.9525537794       -1.8782862729
 H         -4.1715499059        4.7442223784       -0.3090433931
 C         -2.5521671175        3.3415887191       -0.4615514589
 H         -1.8695030073        4.1188886107       -0.8143758887
 H         -2.3136963585        2.4295593845       -1.0123161426
 C         -2.2713321929        3.1116380737        1.0218713438
 H         -2.5276059868        4.0087438136        1.5887409725
 H         -1.1976627689        2.9369395393        1.1313350822
 C         -2.9965592732        1.9113726451        1.6530179486
 H         -2.4595954044        1.6349524294        2.5650517641
 H         -4.0139899363        2.1673522360        1.9387963132
 H         -6.0077978698        3.1622541812       -0.8789188986
 H         -5.2501224224        2.8270974956        0.6616602871
 H         -4.7109384705        1.3852964604       -1.9759559227
 H         -5.7904167827        0.8142688433       -0.7197888163
 O         -3.6478375812       -0.5774490437       -1.1070086063
 C         -2.7403422077       -1.5942228799       -0.8546441766
 O         -2.7641587097       -2.5014112724       -1.7081582585
 O         -1.2597825768       -0.2023998265        2.1305728619
 C         -0.9216863218       -2.5510469590        0.6532384487
 C          0.3557807534       -2.2972512428       -0.1101829399
 C          0.4546120103       -2.5491515206       -1.4743243206
 C          1.6271608511       -2.2681211042       -2.1522939638
 C          2.7207458841       -1.7358426396       -1.4908176111
 C          2.6270829176       -1.4677428056       -0.1311352498
 C          1.4487356402       -1.7512849113        0.5479860963
 H          1.3720081942       -1.5291508938        1.6037602219
 N          3.7329502815       -0.9422715047        0.5631865068
 S          4.4987543612        0.4427475264        0.0273579857
 O          5.0071605442        0.2200649316       -1.3019504987
 O          5.4752601466        0.7498304172        1.0462409040
 C          3.2479407733        1.7142063670       -0.0047728712
 C          3.1889029663        2.6137809163        1.0409700843
 C          2.2140685704        3.5978150740        1.0261416837
 C          1.3123206082        3.6577041464       -0.0249650453
 C          1.3743396579        2.7372703702       -1.0599538813
 C          2.3520022301        1.7551882909       -1.0547982005
 H          2.4350069783        1.0314748794       -1.8493505020
 H          0.6647290004        2.7808189454       -1.8708533985
 H          0.5582129806        4.4288101792       -0.0393507047
 H          2.1591949508        4.3128381101        1.8312247733
 H          3.9150746871        2.5346657146        1.8339326392
 H          3.5863385190       -0.8814108916        1.5607055692
 H          3.6379861188       -1.5119366511       -2.0110642054
 H          1.6932924386       -2.4688704749       -3.2112013020
 H         -0.4008913967       -2.9437162828       -2.0003890584
 H         -0.7097476004       -2.3857062304        1.7182733111
 C         -1.4173363411       -3.9714123201        0.4817620271
 C         -0.7043051134       -5.0749584062        1.2022639537
 C         -2.0771432838       -4.6599906350        1.6370666948
 H         -2.9062163631       -5.3215405243        1.4357426644
 H         -2.1747435069       -4.1084338294        2.5609272483
 H         -0.5871158816       -6.0242809951        0.7028397251
 H          0.1302345524       -4.8041040637        1.8315171590
 H         -1.8061463115       -4.1831661374       -0.5048782427
