  62
        -98.93692005
 C         -1.4806705780        0.6090046475       -0.5363869182
 C         -2.7758683244        0.6205025490       -1.1042260634
 C         -3.8913589404        0.2125856897       -0.2310749226
 C         -3.6209557834       -0.1949653646        1.0219343263
 C         -4.5761513086       -0.6618090901        2.0914368113
 C         -5.6944712810       -1.6189795302        1.6511487428
 C         -7.0836887968       -0.9783521432        1.6613443912
 H         -7.8310506958       -1.7675760689        1.7694924388
 H         -7.1620039482       -0.3337383633        2.5392885044
 C         -7.4384912872       -0.1747512771        0.4114087909
 H         -7.6084020920       -0.8596985212       -0.4221411908
 H         -8.3823802579        0.3396913730        0.6064698601
 C         -6.3960499189        0.8590097564       -0.0188190705
 H         -5.9878583429        1.3740053501        0.8500378047
 H         -6.9031399216        1.6114988570       -0.6264026042
 C         -5.2560590400        0.2681524338       -0.8617908947
 H         -5.5273449707       -0.7336386672       -1.2072223936
 H         -5.1176593795        0.8689865458       -1.7660217538
 H         -5.7062724861       -2.4583482158        2.3485065008
 H         -5.4697998070       -2.0237764784        0.6655847732
 H         -5.0101588795        0.2170605365        2.5749950831
 H         -3.9454844980       -1.1477940736        2.8395608902
 O         -2.3522313085       -0.2109638067        1.5220597979
 C         -1.2569640062        0.1910267891        0.7749508614
 O         -0.1752395085        0.1365509802        1.3888252100
 O         -2.9968492492        0.9641506672       -2.2972639079
 C         -0.3050902483        1.0180432992       -1.4085798445
 C          0.5114466006       -0.2140511162       -1.7131245467
 C         -0.0406489896       -1.2030214641       -2.5246255387
 C          0.6639376287       -2.3565168580       -2.8076068903
 C          1.9263743598       -2.5563682491       -2.2738828801
 C          2.4832108385       -1.5804028229       -1.4585518559
 C          1.7811682826       -0.4112223457       -1.1966788283
 H          2.2309114940        0.3405747612       -0.5739555283
 N          3.7687488417       -1.7350272799       -0.9077224770
 S          3.9369777807       -1.5607227953        0.7587870694
 O          5.2052456221       -2.1984373962        1.0513704244
 O          2.7915447510       -2.0910596518        1.4598946475
 C          4.1090485305        0.1910702332        1.0173218457
 C          5.2256608349        0.8110716758        0.4910751525
 C          5.3816526312        2.1754503808        0.6734871156
 C          4.4253936002        2.8904265897        1.3793810261
 C          3.3136441572        2.2504497763        1.9056594874
 C          3.1478578368        0.8854444414        1.7252773455
 H          2.2773063001        0.3607009885        2.0889727136
 H          2.5659989596        2.8056982919        2.4501776998
 H          4.5442743270        3.9534654173        1.5198016425
 H          6.2435718617        2.6775066993        0.2645137341
 H          5.9460582251        0.2153792347       -0.0441864594
 H          4.2455686255       -2.5727992174       -1.2122057643
 H          2.4744297811       -3.4625322690       -2.4852851930
 H          0.2261763396       -3.1124650668       -3.4423423755
 H         -1.0323772076       -1.0520578954       -2.9284049281
 H         -0.7518930416        1.3678760605       -2.3500296735
 C          0.4921991000        2.1461132284       -0.7907732134
 C          1.4514007510        2.9273943844       -1.6367768019
 C          0.1789067294        3.5623975487       -1.1646553438
 H          0.2323136989        4.3202010000       -0.3977697533
 H         -0.6092742963        3.7261604286       -1.8849815965
 H          2.3826966756        3.2464482174       -1.1938629422
 H          1.5270803585        2.6591278685       -2.6795139581
 H          0.7671140211        1.9552770606        0.2392065968
