  62
        -98.94074215
 C          1.1171974154        1.4348237243        0.1086595647
 C          1.6280873830        0.5534885536        1.0885248127
 C          2.5140472099       -0.5303593919        0.6246545959
 C          2.7569586833       -0.6433320566       -0.6945142652
 C          3.6748388125       -1.6090019251       -1.3970207153
 C          5.1593919013       -1.2503953596       -1.2223197580
 C          5.5701239630       -0.8771996103        0.1993113608
 H          6.6149599971       -0.5570930569        0.1691346455
 H          4.9796370815       -0.0212985337        0.5307909789
 C          5.4558312572       -2.0016184501        1.2259552313
 H          6.0650808767       -2.8480558043        0.9013563382
 H          5.8789288103       -1.6294465960        2.1625759366
 C          4.0380319986       -2.5016286776        1.5126022252
 H          4.0815607314       -3.0957956509        2.4301267391
 H          3.6920639129       -3.1706212980        0.7292104249
 C          3.0143639095       -1.3970564955        1.7550340148
 H          2.1168675310       -1.8437015471        2.2005670582
 H          3.4006582056       -0.7121125923        2.5185077911
 H          5.7596282877       -2.0943485471       -1.5666431064
 H          5.3790806346       -0.3956127105       -1.8665969240
 H          3.4839470937       -2.6249603376       -1.0641809842
 H          3.4341787174       -1.5539144697       -2.4609378599
 O          2.1848816756        0.1876565205       -1.6099801840
 C          1.3418579071        1.2223266984       -1.2515885273
 O          0.8764195963        1.8586343270       -2.2140991309
 H         -1.1800077909        0.7080261337        1.7698446746
 C         -1.7642372922        1.1681312834        0.9831201703
 C         -1.2009440850        2.2046638275        0.2472485922
 C         -1.9514205153        2.7825895252       -0.7671807487
 C         -3.2309952548        2.3255417425       -1.0370733081
 C         -3.7869495686        1.2916298730       -0.3053761247
 C         -3.0428172406        0.7109076947        0.7136106909
 N         -3.5892202242       -0.3665106487        1.4504643461
 S         -3.8312011544       -1.7593801019        0.5502170446
 O         -4.9569637415       -1.5582824703       -0.3251695347
 O         -3.9524259009       -2.8319954030        1.5111580623
 C         -2.3380366391       -1.9464932443       -0.4078878582
 C         -2.2842252949       -1.4294132501       -1.6862563844
 C         -1.1033612176       -1.5380885113       -2.4024231913
 C         -0.0036497520       -2.1574753390       -1.8305296815
 C         -0.0692836135       -2.6604241749       -0.5403594188
 C         -1.2458620071       -2.5505765306        0.1819435729
 H         -1.3388403004       -2.9387075013        1.1839620989
 H          0.7921076255       -3.1319325289       -0.0949870986
 H          0.9111456005       -2.2437088852       -2.3946030058
 H         -1.0397632475       -1.1332568004       -3.3996655944
 H         -3.1629903413       -0.9622064043       -2.0994984900
 H         -3.0362553927       -0.5955454663        2.2654136142
 H         -4.7744654193        0.9134206572       -0.5150602486
 H         -3.8024135220        2.7801642544       -1.8320465722
 H         -1.5284764018        3.5782781608       -1.3575278200
 C          0.2251210249        2.5797376000        0.5627099486
 H          0.3281107067        2.6103126739        1.6566659474
 C          0.6582791386        3.9128425828       -0.0045398393
 C          0.1644744683        5.1754560181        0.6341683326
 C          1.5993483934        4.7710103987        0.7846405091
 H          2.3529919178        5.3322091849        0.2529121130
 H          1.9282409914        4.4022252881        1.7453870434
 H         -0.0682577078        6.0178921722        0.0011142749
 H         -0.4822102501        5.0793607897        1.4933188520
 H          0.7833076400        3.9011820663       -1.0799912427
 O          1.3644402703        0.6676935497        2.3179210223
