  62
        -98.94789600
 C         -0.9518016408       -1.0376753639        0.7024823380
 C         -1.5379724158       -0.9217522845       -0.5807808139
 C         -2.2566216509        0.3329400399       -0.8441617443
 C         -2.2691299361        1.2956663101        0.0949854978
 C         -2.9878767540        2.6077161954       -0.0302842641
 C         -4.4181038510        2.5157571657        0.5199367690
 C         -5.2063572059        1.3166226532       -0.0062417832
 H         -4.7452244593        0.3976770085        0.3624075242
 H         -6.2079784505        1.3709348624        0.4254450492
 C         -5.3124527257        1.2489202326       -1.5360349514
 H         -6.3430997498        1.0095401282       -1.8061954230
 H         -5.0823838290        2.2236499031       -1.9678813558
 C         -4.4238577047        0.1866452444       -2.1861876304
 H         -4.7320488254        0.0764472044       -3.2293521078
 H         -4.5837356423       -0.7761375579       -1.6943098033
 C         -2.9184978254        0.4827257841       -2.1841635459
 H         -2.4305606318       -0.2460860123       -2.8385517372
 H         -2.7344182325        1.4783293334       -2.5946489337
 H         -4.3653856693        2.4393502983        1.6082566074
 H         -4.9441656343        3.4383798441        0.2682539832
 H         -2.4371923080        3.3594082383        0.5383399476
 H         -3.0059959102        2.9046162792       -1.0775265575
 O         -1.6554762156        1.1660670529        1.2992892817
 C         -0.9782343211        0.0027022279        1.6296690154
 O         -0.4466103479        0.0195573067        2.7581447540
 H          1.4601710467       -0.3339125195        0.3051457271
 C          1.7383344050       -1.2638341302       -0.1692369012
 C          1.0076179502       -2.4113802419        0.1112179471
 C          1.3873337543       -3.6029598085       -0.4917214330
 C          2.4526149251       -3.6279924576       -1.3759757066
 C          3.1475471744       -2.4734862159       -1.6865719437
 C          2.7827412728       -1.2780886029       -1.0771763616
 N          3.4641990976       -0.0809645121       -1.3451118901
 S          2.6073254849        1.3566048479       -1.3944689487
 O          1.2792069408        1.1813720812       -1.9347963905
 O          3.4722581368        2.2583021577       -2.1286982810
 C          2.5247130650        1.8953109989        0.2992388572
 C          1.3515525609        2.4565873539        0.7615839395
 C          1.2859739873        2.8924420665        2.0747402683
 C          2.3942005108        2.7647978568        2.8969465321
 C          3.5690326732        2.2077348646        2.4150259370
 C          3.6401844482        1.7687332830        1.1028093072
 H          4.5331969401        1.3248521316        0.6954730021
 H          4.4271524030        2.1094657454        3.0603684149
 H          2.3367810982        3.0971103577        3.9213812387
 H          0.3669956356        3.3112779006        2.4522947783
 H          0.5074238950        2.5191538161        0.0914133094
 H          4.1560041982       -0.1341163870       -2.0787332880
 H          3.9609909746       -2.4920864167       -2.3957501978
 H          2.7351117073       -4.5587898247       -1.8441221614
 H          0.8432379179       -4.5088328427       -0.2802977623
 C         -0.1577459755       -2.2810043786        1.0628130011
 H          0.2440252472       -2.1034777030        2.0714423441
 C         -1.0526953814       -3.5014716677        1.0993807432
 C         -0.7269926233       -4.6491456705        2.0061856247
 C         -1.8844551817       -3.7510687422        2.3203872655
 H         -2.8861824698       -4.1331037222        2.1929111403
 H         -1.7845900185       -3.0523450840        3.1384258754
 H         -0.9368933185       -5.6516640186        1.6649992356
 H          0.1574732447       -4.5665157181        2.6194312061
 H         -1.4997115781       -3.7178327321        0.1359780192
 O         -1.4707111379       -1.8210087210       -1.4595903441
