  62
        -98.94077213
 C         -2.5743573070       -1.3713200849        0.2442386739
 C         -2.7918061630       -0.5192871794       -0.8659723384
 C         -3.6459524847        0.6537863772       -0.6185046451
 C         -4.1556868755        0.8607704534        0.6082938610
 C         -4.9913929999        2.0419078885        1.0062597559
 C         -4.1206472663        3.1822133712        1.5517570888
 C         -2.9271943265        3.5310283200        0.6618662039
 H         -2.4080347604        4.3716150601        1.1278873828
 H         -2.2255957784        2.6925769054        0.6549025592
 C         -3.2966483770        3.8969230674       -0.7825734796
 H         -4.3541230404        4.1576356123       -0.8399823328
 H         -2.7267425328        4.7816629116       -1.0743470255
 C         -2.9856348783        2.8094347983       -1.8126486967
 H         -1.9498982563        2.4796235302       -1.6904555023
 H         -3.0713349748        3.2513200424       -2.8091200457
 C         -3.8977219574        1.5762067895       -1.7782284429
 H         -4.9424870061        1.8920745123       -1.8005177049
 H         -3.6958372698        0.9890180597       -2.6789278433
 H         -4.7492306331        4.0651748857        1.6805895865
 H         -3.7394388983        2.8892796630        2.5327114130
 H         -5.5598311108        2.3853077868        0.1441787201
 H         -5.6857136290        1.7235417148        1.7856343379
 O         -3.9247179310        0.0238185740        1.6511884976
 C         -3.1260632259       -1.0957500881        1.4995164722
 O         -2.9906044759       -1.7699761969        2.5397865124
 H         -0.2270038445       -0.9144757426       -1.2735855808
 C          0.3417670866       -1.3407198149       -0.4597907221
 C         -0.2676176059       -2.2640557376        0.3798846761
 C          0.4719150756       -2.7989611638        1.4271764462
 C          1.7879504340       -2.4171687153        1.6253096417
 C          2.3906519118       -1.4971954537        0.7860985026
 C          1.6573428180       -0.9529795024       -0.2604688399
 N          2.2591137357       -0.0073964538       -1.1159728978
 S          2.8368119830        1.3903161566       -0.3790376701
 O          2.1039920166        1.6893425383        0.8307884276
 O          2.8211329843        2.4053069454       -1.4096673862
 C          4.5257837190        0.9829152134        0.0093409765
 C          5.3540124921        0.5984515457       -1.0271556542
 C          6.6712834285        0.2738409505       -0.7454274287
 C          7.1357464149        0.3407240576        0.5599525879
 C          6.2925009775        0.7319883911        1.5886400697
 C          4.9731130641        1.0573985569        1.3136917988
 H          4.2785517631        1.3599041838        2.0812129358
 H          6.6553308182        0.7835437755        2.6026236658
 H          8.1611158667        0.0862891051        0.7770828434
 H          7.3300573998       -0.0308848334       -1.5425284416
 H          4.9528687908        0.5626874090       -2.0262493937
 H          1.6690924667        0.2385817049       -1.8993014531
 H          3.4136038029       -1.1934803379        0.9382355166
 H          2.3500472095       -2.8389348238        2.4444474062
 H          0.0019709990       -3.5021375285        2.0992074172
 C         -1.7161117051       -2.6268205488        0.1768246188
 H         -2.0311303570       -3.2322563170        1.0406372645
 C         -1.9720368078       -3.4523762789       -1.0781370349
 C         -0.9282857431       -3.7456479413       -2.1106281555
 C         -1.3898585908       -4.8308459300       -1.1885132365
 H         -2.0061832011       -5.6244231088       -1.5826880285
 H         -0.7115789758       -5.1426227327       -0.4084006307
 H         -1.2429924093       -3.7700063213       -3.1429418523
 H          0.0634194535       -3.3461575256       -1.9682656325
 H         -2.9840912115       -3.3239281730       -1.4474918002
 O         -2.3086745568       -0.7065312777       -2.0138722207
