  62
        -98.93906735
 C         -2.2717199599       -0.0310962802        0.2430063508
 C         -3.2952862300       -0.7296904102       -0.4438656792
 C         -4.4953864100        0.0526757098       -0.7714422791
 C         -4.5571805500        1.3589235798       -0.4600485390
 C         -5.7021908600        2.2897694298       -0.7533184889
 C         -6.8285696400        2.2392880397        0.2883111611
 C         -7.6941048499        0.9790687397        0.2508681711
 H         -8.5672921899        1.1720710297        0.8772617612
 H         -8.0524768300        0.8161258797       -0.7659856788
 C         -6.9918640999       -0.2872748303        0.7605487511
 H         -6.1062097299       -0.0066721103        1.3354359710
 H         -7.6570991499       -0.8239518803        1.4407767411
 C         -6.5786372200       -1.2679852003       -0.3368577590
 H         -6.0583163499       -2.1069396703        0.1319320109
 H         -7.4694273400       -1.6587673403       -0.8335938690
 C         -5.6491728700       -0.6692160602       -1.4004232890
 H         -6.2068671001        0.0012917298       -2.0534916890
 H         -5.2425995700       -1.4867353702       -2.0004166191
 H         -6.3894595699        2.3507545997        1.2824780011
 H         -7.4739557900        3.1028490697        0.1116867612
 H         -6.1083781301        2.0719541898       -1.7414067289
 H         -5.2863471900        3.2995539398       -0.7623937689
 O         -3.5375795200        2.0060236497        0.1653903909
 C         -2.3947527199        1.3281434297        0.5503323208
 O         -1.5649918699        2.0385769997        1.1552491708
 O         -3.2377137400       -1.9417747902       -0.7808325692
 C         -0.9785681499       -0.6814116302        0.7064181107
 C          0.0388331100       -0.7959656002       -0.4039506494
 C         -0.2166583300       -1.5320065002       -1.5564398494
 C          0.7513699599       -1.6542824301       -2.5360153294
 C          1.9956137699       -1.0699142901       -2.3771498495
 C          2.2583545900       -0.3285318501       -1.2315343395
 C          1.2768296000       -0.1873721902       -0.2605528194
 H          1.4929453601        0.4027142298        0.6187084406
 N          3.5048213100        0.2895941699       -1.0419543295
 S          4.1319031201        0.3296991298        0.5261700304
 O          3.8649798001       -0.9227333302        1.1963504304
 O          3.6590627601        1.5203664298        1.1874003605
 C          5.8743161301        0.4830066398        0.1786430503
 C          6.4013407700        1.7378935299       -0.0614377596
 C          7.7490818200        1.8510977399       -0.3640826097
 C          8.5421764800        0.7146533199       -0.4230006398
 C          7.9993571900       -0.5377807301       -0.1778600298
 C          6.6522126701       -0.6583833301        0.1247975403
 H          6.1886974101       -1.6095262102        0.3321196703
 H          8.6191554601       -1.4188287401       -0.2204662399
 H          9.5907249300        0.8060472199       -0.6584446899
 H          8.1751710900        2.8233930999       -0.5519138097
 H          5.7478828900        2.5923314899        0.0044615304
 H          4.1969416500       -0.0020246801       -1.7186575796
 H          2.7555215799       -1.1807446601       -3.1358793395
 H          0.5399506699       -2.2253446101       -3.4275224094
 H         -1.1796982800       -2.0040897902       -1.6739852893
 H         -0.5594670899       -0.0018961003        1.4620296207
 C         -1.1855071598       -2.0399576403        1.3516371407
 C         -0.0841941398       -2.6097879903        2.1920972906
 C         -1.3506647898       -2.1328312403        2.8367761907
 H         -2.0351035397       -2.8672059203        3.2344266007
 H         -1.3194521297       -1.2125195203        3.4025999407
 H          0.0998248102       -3.6723194003        2.1466893905
 H          0.8113683502       -2.0170909903        2.3149939006
 H         -1.7585949399       -2.7231085503        0.7389295207
