  62
        -98.94571179
 C          0.9863282031        1.1388651946       -0.2376446340
 C          2.0409201713        1.2076006809        0.7110353132
 C          2.9266255263        0.0421499676        0.7866592265
 C          2.7000579136       -1.0160254372       -0.0119520525
 C          3.5092836815       -2.2840529094       -0.0521936608
 C          4.7692180856       -2.1929503282       -0.9245539940
 C          5.9081903138       -1.3555742496       -0.3414620477
 H          6.1214571641       -1.6900057940        0.6742374695
 H          6.7959104072       -1.5587371610       -0.9438903774
 C          5.6475122412        0.1571733603       -0.3434127408
 H          6.5320743731        0.6787706576       -0.7161937969
 H          4.8293788997        0.3852053966       -1.0305948145
 C          5.3189913237        0.7457028563        1.0286937337
 H          6.1838544205        0.6433938655        1.6880043682
 H          5.1154963871        1.8122757580        0.9038606723
 C          4.1029361860        0.1082982645        1.7134923436
 H          4.3563640924       -0.8864790286        2.0785802414
 H          3.8219512306        0.7341579537        2.5638122034
 H          4.4890345006       -1.7950677914       -1.9026418075
 H          5.1367237408       -3.2109714318       -1.0733562294
 H          3.7890367621       -2.5732944569        0.9610336937
 H          2.8598006355       -3.0541261939       -0.4718031787
 O          1.6683284126       -1.0546268894       -0.8929478354
 C          0.7915976163        0.0122816466       -1.0372767262
 O         -0.0851317987       -0.1856995815       -1.9008429748
 H         -1.9871712590        0.6354193573       -0.8141413657
 C         -2.1272931152        1.2022600782        0.0927023498
 C         -1.1744080880        2.1323488307        0.4866279492
 C         -1.3771968760        2.8436372654        1.6642921906
 C         -2.5103557505        2.6330756518        2.4289714635
 C         -3.4544261671        1.7009585319        2.0399279645
 C         -3.2573034102        0.9790106514        0.8665976016
 N         -4.1972854407        0.0230626397        0.4647855178
 S         -3.8090886829       -1.2614060783       -0.5200483319
 O         -3.6960737355       -0.8269505963       -1.8888225044
 O         -4.8681121170       -2.2189598624       -0.2637599281
 C         -2.2727756924       -1.9590691788        0.0624068968
 C         -1.5026462575       -2.6543309786       -0.8466334918
 C         -0.3504351694       -3.2864206343       -0.4086573758
 C          0.0171318150       -3.2041849367        0.9246332462
 C         -0.7628191229       -2.4961571220        1.8246483359
 C         -1.9249401730       -1.8752962839        1.3955248552
 H         -2.5447293373       -1.3262623087        2.0856055593
 H         -0.4698250082       -2.4250228607        2.8600010015
 H          0.9182449535       -3.6900693731        1.2647940406
 H          0.2586682461       -3.8292285882       -1.1138280945
 H         -1.8085603077       -2.6727229324       -1.8801540089
 H         -4.9112549997       -0.2071047914        1.1392201607
 H         -4.3376479321        1.5282378999        2.6355856730
 H         -2.6569423565        3.1939466125        3.3393233882
 H         -0.6296791692        3.5545700481        1.9838833166
 C          0.0769909869        2.3536041054       -0.3281520185
 H          0.6424116995        3.1667146917        0.1479473923
 C         -0.2511647277        2.7716294261       -1.7468642148
 C         -0.6563085031        4.1906762039       -2.0066630501
 C          0.6800659041        3.6953982694       -2.4704855625
 H          0.8385898147        3.5423128903       -3.5274704388
 H          1.5598960133        4.0331475361       -1.9420364835
 H         -1.4203029853        4.3797551323       -2.7451231172
 H         -0.6806996441        4.8665275173       -1.1651494408
 H         -0.7323904800        1.9969068752       -2.3296045533
 O          2.2349203994        2.2041188084        1.4569004390
