  62
        -98.93160504
 C         -1.7520055223       -0.3418184021       -0.8129936025
 C         -2.9181643225        0.4410190782       -0.9952951727
 C         -4.1974589483       -0.2019049825       -0.6309470383
 C         -4.2033713816       -1.4573339135       -0.1547267691
 C         -5.3826406921       -2.3108249669        0.2409099102
 C         -6.5073844831       -1.6415849631        1.0422433619
 C         -6.0491561924       -0.5370192765        2.0055588771
 H         -6.4694042686       -0.7315156422        2.9941136961
 H         -4.9624047605       -0.5537097224        2.1048620409
 C         -6.5001514729        0.8593639973        1.5704111535
 H         -7.5370352101        0.8030845884        1.2317415354
 H         -6.4757933811        1.5226584095        2.4384745721
 C         -5.6524499762        1.5115210727        0.4789697753
 H         -4.6725472890        1.7798739687        0.8829825669
 H         -6.1419204673        2.4429396056        0.1840913924
 C         -5.4203192970        0.6577084333       -0.7784739064
 H         -6.3003561843        0.0677382627       -1.0223284183
 H         -5.2134425421        1.3361876263       -1.6106270438
 H         -7.0057670740       -2.4323403640        1.6056417329
 H         -7.2483686633       -1.2305165158        0.3580347877
 H         -4.9553570925       -3.1297674605        0.8245650815
 H         -5.8041311274       -2.7498615576       -0.6681478722
 O         -3.0548958371       -2.1746551922        0.0070946430
 C         -1.8188410299       -1.6422227367       -0.3075396143
 O         -0.8623739140       -2.4173232869       -0.1038962291
 O         -2.9215797116        1.6153500816       -1.4425035469
 C         -0.3520566122        0.1523647119       -1.1344627184
 C          0.2627088184        0.8948784238        0.0238329178
 C         -0.4483911076        1.8475708381        0.7458214069
 C          0.1534251824        2.5269172738        1.7893599414
 C          1.4780117378        2.2916596284        2.1139563927
 C          2.1987531604        1.3453006650        1.3959246768
 C          1.5805847467        0.6401966669        0.3729960335
 H          2.1379104383       -0.1131996401       -0.1619365564
 N          3.5444804597        1.0825302255        1.6871601020
 S          4.6227261373        0.8590423703        0.4227904724
 O          5.9108308938        1.2190108510        0.9749234564
 O          4.2068929713        1.5817603507       -0.7555225097
 C          4.5947453107       -0.8940197505        0.1195242242
 C          4.8639999634       -1.7437004641        1.1741214549
 C          4.8614208920       -3.1105962106        0.9491112429
 C          4.5928334254       -3.6019738900       -0.3196384883
 C          4.3277383262       -2.7356409808       -1.3687497176
 C          4.3288932719       -1.3670744290       -1.1499456511
 H          4.1227704403       -0.6592696255       -1.9379073087
 H          4.1171376453       -3.1190666266       -2.3543211720
 H          4.5890310180       -4.6665556795       -0.4929049750
 H          5.0663967381       -3.7888218510        1.7617067166
 H          5.0722196833       -1.3239920389        2.1441316685
 H          3.9394025889        1.6514589761        2.4218078149
 H          1.9510850010        2.8362017003        2.9171270339
 H         -0.4101364493        3.2610484555        2.3455957250
 H         -1.4709678956        2.0595654743        0.4734832085
 H          0.2452918574       -0.7609931117       -1.2876639671
 C         -0.2796666229        0.9521567275       -2.4289393574
 C         -0.1101988099        2.4372435965       -2.4790953239
 C          1.0218846727        1.5445697223       -2.8846689462
 H          1.2769242661        1.4786935560       -3.9320041799
 H          1.8733054038        1.4841801677       -2.2212994118
 H         -0.6518064784        2.9778527140       -3.2401965799
 H         -0.0269303954        2.9722927431       -1.5462814042
 H         -0.9078046328        0.5178510194       -3.2007986041
