  62
        -98.94519906
 C         -2.2515717349       -0.7511588285       -0.0340978473
 C         -3.2345737617       -0.6477721394        0.9833168003
 C         -4.0869891402        0.5443011773        0.9380889779
 C         -3.8743526421        1.4795224604       -0.0053170145
 C         -4.6371265365        2.7667227675       -0.1642554733
 C         -5.9485536052        2.6230611593       -0.9489747987
 C         -7.0797234446        1.9151938291       -0.2019850958
 H         -7.2194427549        2.3849435998        0.7720716622
 H         -7.9935539713        2.0784863972       -0.7766373133
 C         -6.8724714294        0.4047467259       -0.0230256143
 H         -6.1037333482        0.0580517166       -0.7174631516
 H         -7.7948207606       -0.1219483082       -0.2778569539
 C         -6.4857443581       -0.0186192501        1.3940355539
 H         -7.3057347533        0.2048833599        2.0799428466
 H         -6.3285826439       -1.1001077346        1.3974051168
 C         -5.2098167408        0.6471921082        1.9258885162
 H         -5.4043763505        1.6906489403        2.1726467654
 H         -4.9017579092        0.1235640155        2.8340693013
 H         -5.7406450442        2.0945599712       -1.8822460106
 H         -6.2854287299        3.6300381428       -1.2058290624
 H         -4.8437327314        3.1935934726        0.8176343422
 H         -3.9818885238        3.4500017678       -0.7090900617
 O         -2.8954818683        1.3635411155       -0.9409358183
 C         -2.0736593744        0.2459444287       -0.9931418217
 O         -1.2504489198        0.2728826350       -1.9294188469
 H          0.7604474402       -1.2293077782       -1.6084430151
 C          0.9908113839       -1.1746716157       -0.5563170638
 C          0.0346931060       -1.5399604155        0.3784364185
 C          0.3458683320       -1.4235301398        1.7304382450
 C          1.5839080251       -0.9583244026        2.1318164874
 C          2.5336119868       -0.5878352699        1.1951906233
 C          2.2254636544       -0.6819424199       -0.1547263562
 N          3.1757742424       -0.2914373281       -1.1146344130
 S          3.9480106652        1.1843291232       -0.9024298228
 O          3.1347283253        2.1184344185       -0.1582767782
 O          4.3524650790        1.5958534073       -2.2293974782
 C          5.4039558491        0.7590341877        0.0331754571
 C          5.7023281842        1.4429104247        1.1953507553
 C          6.8464449280        1.1009566621        1.8997908933
 C          7.6682148902        0.0874082433        1.4314139490
 C          7.3560427488       -0.5880728022        0.2608993230
 C          6.2146434802       -0.2503804715       -0.4483880805
 H          5.9376400304       -0.7483740287       -1.3624044021
 H          7.9971898849       -1.3759889055       -0.1002196222
 H          8.5570514524       -0.1775028786        1.9819489644
 H          7.0904371412        1.6256556590        2.8095546914
 H          5.0304827603        2.2197995262        1.5245761780
 H          2.8390925561       -0.3774961653       -2.0633367141
 H          3.4961338356       -0.2109747799        1.5002729857
 H          1.8125429919       -0.8783605983        3.1837073821
 H         -0.4039757659       -1.6885312315        2.4626271028
 C         -1.3511320732       -1.9764215476       -0.0269053499
 H         -1.7501330015       -2.6215965050        0.7672512247
 C         -1.3970570297       -2.7340159794       -1.3371783787
 C         -0.8570667243       -4.1309368179       -1.3924421009
 C         -2.3341628966       -3.8944339527       -1.4782262524
 H         -2.8278430257       -4.0442702847       -2.4267899201
 H         -2.9438859911       -4.1508336991       -0.6243203511
 H         -0.3340625676       -4.4471337750       -2.2819200871
 H         -0.4625162761       -4.5466057524       -0.4777903894
 H         -1.2622665443       -2.1024663580       -2.2067009626
 O         -3.3909036654       -1.5124850402        1.8852834369
