  62
        -98.94025062
 C         -2.4877272102       -1.1308816194        0.0361889012
 C         -2.6574858612       -0.0157916725       -0.8191521884
 C         -4.0415377158        0.4476121570       -0.9957770628
 C         -5.0406678808       -0.2050794709       -0.3742057974
 C         -6.4857205064        0.1978306115       -0.4176677012
 C         -6.8312722872        1.1452222252        0.7400316085
 C         -5.8549150442        2.3111240488        0.8968395986
 H         -6.2143700646        2.9270013097        1.7240520642
 H         -4.8767780701        1.9212432026        1.1880510115
 C         -5.6982194853        3.1813735543       -0.3579499802
 H         -6.5366235553        3.0106598571       -1.0341510238
 H         -5.7290955563        4.2319065918       -0.0615624861
 C         -4.3860414602        2.9710284258       -1.1158788808
 H         -3.5441225542        3.0475016273       -0.4228829907
 H         -4.2822240854        3.7773253581       -1.8468422563
 C         -4.2613076694        1.6449950958       -1.8768027088
 H         -5.1362319727        1.5011140067       -2.5139152053
 H         -3.3760902797        1.7110398539       -2.5161961518
 H         -6.8300685362        0.5705993967        1.6691461171
 H         -7.8395559178        1.5315484191        0.5806415293
 H         -7.0965946646       -0.7024594641       -0.3336827743
 H         -6.6945307026        0.6797703462       -1.3706400786
 O         -4.8390310230       -1.2895544132        0.4180524754
 C         -3.5618537696       -1.7700829937        0.6543205525
 O         -3.5140871945       -2.7526022503        1.4223541246
 O         -1.7056988681        0.5657638120       -1.4027428501
 C         -1.0946338800       -1.6701749378        0.3033544052
 C         -0.2127843478       -0.5794393840        0.8616109938
 C         -0.6837754357        0.1866789792        1.9255792530
 C          0.0913663869        1.1905414944        2.4716458564
 C          1.3601351076        1.4429903937        1.9798119541
 C          1.8410112010        0.6832503180        0.9207482414
 C          1.0564484912       -0.3217292059        0.3702959318
 H          1.4570039208       -0.8948483115       -0.4488073276
 N          3.1136129354        0.9332060567        0.3830226857
 S          4.0239674443       -0.3665433498       -0.1910448757
 O          3.6098922232       -0.6771133777       -1.5358286029
 O          3.9851824188       -1.4564191465        0.7581278191
 C          5.6464427274        0.3738356912       -0.2186203100
 C          5.9805939571        1.1954480034       -1.2788103366
 C          7.2276196508        1.7996038866       -1.2907314789
 C          8.1146993039        1.5741289627       -0.2484137821
 C          7.7661351769        0.7456013712        0.8075358147
 C          6.5197607830        0.1393386101        0.8265501334
 H          6.2083442550       -0.5184243629        1.6220170926
 H          8.4592185763        0.5697832973        1.6143523167
 H          9.0849781111        2.0449578194       -0.2608974954
 H          7.5031530249        2.4422220185       -2.1112949372
 H          5.2621730244        1.3336705478       -2.0700339941
 H          3.6688603658        1.5526290226        0.9572290429
 H          1.9675455734        2.2265344205        2.4067815004
 H         -0.2912752810        1.7781153265        3.2928623769
 H         -1.6725011021       -0.0169443702        2.3155210986
 H         -1.2082134093       -2.4438932543        1.0777985392
 C         -0.5358536335       -2.3161290309       -0.9470119228
 C          0.4770286507       -3.4148083511       -0.8403378389
 C         -0.9227017667       -3.7251730725       -1.2765095667
 H         -1.0960895078       -3.9844690756       -2.3100771791
 H         -1.5747287232       -4.2343936377       -0.5815251771
 H          1.2708624038       -3.4548366593       -1.5716923980
 H          0.7833380358       -3.7179901743        0.1499089562
 H         -0.4419877180       -1.6169957728       -1.7708334166
