  62
        -98.93237697
 C          2.3015891241        1.1452818224        0.3038477190
 C          3.4687201483        0.8740406006       -0.4606168479
 C          4.2972803245       -0.2549058315       -0.0105461214
 C          3.9756696139       -0.8925507966        1.1278756689
 C          4.6962245326       -2.0882807643        1.6787925170
 C          4.0775785511       -3.3960166941        1.1661371276
 C          3.8711563814       -3.4300291546       -0.3483190700
 H          3.4616118490       -4.4112295463       -0.5986280278
 H          3.1144530707       -2.6901462605       -0.6213263479
 C          5.1446128026       -3.1823803201       -1.1693107214
 H          5.1866558711       -3.9150666980       -1.9779708172
 H          6.0241739988       -3.3385728369       -0.5438987549
 C          5.2233428645       -1.7986476889       -1.8173141423
 H          4.2990530345       -1.5986821414       -2.3658283255
 H          6.0392946671       -1.8099931738       -2.5448028679
 C          5.4792511864       -0.6273857438       -0.8605689416
 H          6.3490013627       -0.8447499770       -0.2373860670
 H          5.7005153516        0.2563705818       -1.4661314734
 H          3.1050936077       -3.5306605615        1.6455995718
 H          4.7227406714       -4.2239473288        1.4657418903
 H          4.6213854713       -2.0627410803        2.7671443240
 H          5.7453384788       -2.0345283790        1.3940532462
 O          2.9246825011       -0.5227812001        1.9010255674
 C          2.0681301733        0.5055127471        1.5221396821
 O          1.1879490088        0.7446161064        2.3707443694
 O          3.8157899354        1.5463120997       -1.4646089153
 C          1.3659961740        2.2413311052       -0.1897853215
 C          0.0760272823        2.3360024558        0.5832226396
 C         -0.2277783800        3.4538043571        1.3484436266
 C         -1.4576123621        3.5656411342        1.9729054027
 C         -2.4117105277        2.5770179666        1.8280629202
 C         -2.1149432137        1.4499788620        1.0676181375
 C         -0.8828012179        1.3412136610        0.4470795673
 H         -0.6655191610        0.4569050079       -0.1324348427
 N         -3.0540254041        0.4143062206        0.9303976645
 S         -3.0646212443       -0.4996335083       -0.4834994756
 O         -2.0498370035       -1.5214226610       -0.3981735278
 O         -3.0012102519        0.3655156405       -1.6406749865
 C         -4.6801797235       -1.2462343113       -0.3666252017
 C         -4.8365435823       -2.3747396861        0.4158405866
 C         -6.0966675021       -2.9394281001        0.5330896909
 C         -7.1738023173       -2.3691860241       -0.1292036727
 C         -7.0013822037       -1.2377976708       -0.9123389750
 C         -5.7438619047       -0.6674923465       -1.0331084813
 H         -5.5601320151        0.2059334872       -1.6378414941
 H         -7.8398007514       -0.7989813009       -1.4287246143
 H         -8.1530679972       -2.8115285780       -0.0366490490
 H         -6.2334402216       -3.8207839506        1.1386835864
 H         -3.9685140062       -2.7865974242        0.9041235630
 H         -3.9853821404        0.6804011544        1.2182997716
 H         -3.3735874984        2.6657116054        2.3099711736
 H         -1.6787961375        4.4377462344        2.5697539412
 H          0.5114891204        4.2341422407        1.4624998793
 H          1.8983956113        3.2020936275       -0.1071985719
 C          1.0018599378        2.0283979528       -1.6578601571
 C          0.0549361669        2.9870916630       -2.3210606203
 C          1.4926887927        2.9467749557       -2.7315494495
 H          1.7561113920        2.5163415548       -3.6853702965
 H          2.1376505640        3.7587699958       -2.4339311447
 H         -0.6948307457        2.5841254761       -2.9850939164
 H         -0.2859968561        3.8297454705       -1.7383208584
 H          0.8966670116        0.9809159004       -1.9239484943
