  62
        -98.94020691
 C          2.4923569645        1.1504473953        0.0045243556
 C          2.6107991501        0.0025114729       -0.8153302244
 C          3.9761132096       -0.5100014581       -1.0020653962
 C          5.0069250147        0.1298567209       -0.4202730430
 C          6.4370985785       -0.3217386152       -0.4750720486
 C          6.7721528783       -1.2425737915        0.7069578400
 C          5.7610214667       -2.3694568064        0.9191270961
 H          6.1149689533       -2.9693339706        1.7603609930
 H          4.8014905593       -1.9379715202        1.2135573961
 C          5.5534250624       -3.2749657879       -0.3028777571
 H          5.5547570258       -4.3155599406        0.0281666321
 H          6.3848831557       -3.1549722456       -0.9982888844
 C          4.2356408692       -3.0458338770       -1.0454775564
 H          4.0925680051       -3.8713774349       -1.7477757602
 H          3.4040370835       -3.0716883801       -0.3364678336
 C          4.1410676812       -1.7415633808       -1.8471947407
 H          5.0088973997       -1.6473481895       -2.5030016491
 H          3.2430676621       -1.7986499667       -2.4694257642
 H          6.8069628694       -0.6385752334        1.6165769933
 H          7.7640255478       -1.6675037215        0.5429172584
 H          6.6129801322       -0.8406297171       -1.4152014259
 H          7.0784840259        0.5599375465       -0.4306968413
 O          4.8545142863        1.2455819644        0.3388184000
 C          3.5977855788        1.7740874910        0.5822718949
 O          3.5958098122        2.7815681367        1.3187167990
 H         -1.4241978656        0.9125124025       -0.4430710573
 C         -1.0322059275        0.3990229800        0.4185020148
 C          0.2299606431        0.6948951341        0.9060833612
 C          0.6918153344        0.0051041775        2.0249795506
 C         -0.0864291248       -0.9616017499        2.6303402450
 C         -1.3475411049       -1.2537789075        2.1408409855
 C         -1.8181987786       -0.5717016001        1.0255952789
 N         -3.0804525174       -0.8710927779        0.4892991905
 S         -3.9894840251        0.3619511401       -0.2164365977
 O         -3.5342810846        0.5755728484       -1.5666596573
 O         -4.0034245822        1.5229984714        0.6452676748
 C         -5.5964682580       -0.4115770963       -0.2399085348
 C         -5.8853553566       -1.3057727965       -1.2535946061
 C         -7.1197319493       -1.9354984548       -1.2595950231
 C         -8.0391962260       -1.6633932566       -0.2572430778
 C         -7.7359669014       -0.7622249791        0.7522056404
 C         -6.5026949629       -0.1295484505        0.7647428575
 H         -6.2265329521        0.5842033841        1.5241653044
 H         -8.4540905638       -0.5505046730        1.5279243425
 H         -8.9992538927       -2.1548227308       -0.2647960404
 H         -7.3601497674       -2.6343472396       -2.0445118754
 H         -5.1427209222       -1.4789833392       -2.0150617243
 H         -3.6428342010       -1.4454279450        1.1020723876
 H         -1.9569828478       -2.0096442802        2.6124910994
 H          0.2879188821       -1.4890111034        3.4950652883
 H          1.6756896916        0.2391001416        2.4102162352
 C          1.1218847209        1.7410690393        0.2825500862
 H          1.2770658346        2.5402030220        1.0229283425
 C          0.5477717453        2.3536534617       -0.9772263509
 C         -0.4528223327        3.4647361815       -0.8841226667
 C          0.9408659950        3.7483494942       -1.3564875064
 H          1.0961087244        3.9746324124       -2.4006420463
 H          1.6109458852        4.2723180119       -0.6902587197
 H         -1.2604176003        3.4905824955       -1.6008075132
 H         -0.7366083247        3.8002173169        0.1023383585
 H          0.4315556167        1.6314281757       -1.7778927671
 O          1.6306824962       -0.5687390973       -1.3609449098
