  62
        -98.94519898
 C         -1.7662979200       -1.3356563301       -0.2421356195
 C         -2.8751014700       -0.7136641300        0.3716306004
 C         -3.2791078400        0.5923666699       -0.1750736600
 C         -2.5878367101        1.1101431896       -1.2058766202
 C         -2.7732143501        2.4586434294       -1.8441657305
 C         -1.8342385801        3.4871625896       -1.1888405509
 C         -2.4187733700        4.2016014099        0.0281832490
 H         -1.6211011000        4.8137302601        0.4557742987
 H         -3.2185396800        4.8734394798       -0.2925431012
 C         -2.9577400199        3.2731645802        1.1193887493
 H         -2.9801962999        3.8333312305        2.0567369691
 H         -2.2602926899        2.4439301403        1.2585566195
 C         -4.3689449200        2.7441502202        0.8214673295
 H         -5.0072994999        2.9142431904        1.6911446695
 H         -4.7983378300        3.3239415599        0.0042480493
 C         -4.4580816200        1.2459629901        0.4932219299
 H         -4.5978246399        0.6798771003        1.4197888401
 H         -5.3485425400        1.0684866699       -0.1194945300
 H         -0.9174754900        2.9693664897       -0.8920621808
 H         -1.5629490101        4.2421862494       -1.9300289211
 H         -3.8100194001        2.7772946394       -1.7860256406
 H         -2.4945204202        2.3499331391       -2.8943774605
 O         -1.5446882401        0.4625810394       -1.7897656100
 C         -1.0846004901       -0.7455237404       -1.3051203597
 O         -0.0869830201       -1.1967493206       -1.9020694396
 O         -3.4915983699       -1.2210467297        1.3501684305
 C         -1.2302273500       -2.6367889200        0.3258879108
 C          0.2116964500       -2.4527867699        0.7336044607
 C          1.1918765400       -3.4188142699        0.5422492409
 C          2.5046183101       -3.1704012998        0.9061625508
 C          2.8736718701       -1.9487921997        1.4392239504
 C          1.8979948701       -0.9807223096        1.6441544402
 C          0.5783810001       -1.2509803497        1.3258559803
 H         -0.1652093699       -0.4867046896        1.4991073202
 N          2.2128513401        0.3030702505        2.1423536098
 S          2.0054281601        1.5636520802        1.0505710795
 O          2.4538775801        2.7486429104        1.7511124091
 O          0.6493722800        1.5826854601        0.5708108395
 C          3.1578281000        1.1782557299       -0.2552989505
 C          4.4205197600        1.7379054199       -0.1974067007
 C          5.3595235899        1.3792311596       -1.1500784207
 C          5.0249346499        0.4600193693       -2.1335703204
 C          3.7552719599       -0.0942212807       -2.1748567502
 C          2.8069802199        0.2633506096       -1.2274770302
 H          1.8114676899       -0.1535977604       -1.2490982600
 H          3.4863927099       -0.8088681609       -2.9361620799
 H          5.7563763399        0.1743398291       -2.8730623403
 H          6.3463749999        1.8123523296       -1.1209392208
 H          4.6323869600        2.4490584501        0.5848947291
 H          3.1426257001        0.3665085407        2.5356827298
 H          3.9029611601       -1.7419444396        1.6913024303
 H          3.2543412901       -3.9308561098        0.7503424110
 H          0.9287716200       -4.3654272100        0.0990989312
 H         -1.8274408699       -2.8343852797        1.2289438909
 C         -1.4343701900       -3.7735512803       -0.6544043888
 C         -1.6650531200       -5.1706097401       -0.1624850484
 C         -2.7935907300       -4.3937207303       -0.7687036386
 H         -3.1513318901       -4.6759106806       -1.7474492385
 H         -3.5654692600       -4.0138718701       -0.1152402687
 H         -1.2498413800       -5.9910850603       -0.7281434782
 H         -1.6783020399       -5.3300989998        0.9051008516
 H         -0.8678130301       -3.6372123105       -1.5688127289
