  62
        -98.94595899
 C          1.2025877837        0.9422205592       -0.4995545012
 C          2.3175352521        1.2295969538        0.3297782249
 C          3.1010257393        0.0819016279        0.8011551050
 C          2.7058474986       -1.1600152673        0.4683869587
 C          3.4267244686       -2.4207904787        0.8476963635
 C          4.4500011954       -2.8227578221       -0.2238368658
 C          5.3676651805       -1.6803758290       -0.6593004485
 H          4.7711097051       -0.9188322815       -1.1664631921
 H          6.0656301132       -2.0860452076       -1.3947767550
 C          6.1540017345       -1.0266481371        0.4854815710
 H          7.1904276067       -0.8944323948        0.1679429831
 H          6.1628295788       -1.6868447790        1.3535189910
 C          5.6376613945        0.3513679416        0.9037567454
 H          5.5378602033        0.9885740484        0.0215480313
 H          6.3847130966        0.8106908140        1.5565809776
 C          4.3024424256        0.3636205065        1.6591776994
 H          4.1545195242        1.3714677808        2.0583949328
 H          4.3470910890       -0.3331007860        2.4992325103
 H          3.9084613713       -3.1809200051       -1.1022336833
 H          5.0507346702       -3.6469118113        0.1652560497
 H          2.6894465879       -3.2184308575        0.9553682303
 H          3.9244494443       -2.2724122512        1.8042800605
 O          1.6194058230       -1.4030841231       -0.3030546147
 C          0.8405452056       -0.3698483141       -0.8079850384
 O         -0.1107865417       -0.7696394405       -1.5067325125
 O          2.6478950535        2.4031528701        0.6540628177
 C          0.3885178370        2.1364738856       -0.9702792586
 C         -0.7560015410        2.3895428360       -0.0175059759
 C         -0.9232658367        3.6255523154        0.5954361737
 C         -1.9552169650        3.8297718926        1.4944882383
 C         -2.8206692951        2.8003593001        1.8177798128
 C         -2.6600712457        1.5605414321        1.2094401997
 C         -1.6519241681        1.3720955892        0.2771695104
 H         -1.5411602088        0.4090106163       -0.1934922761
 N         -3.5074007306        0.4851209519        1.5128175012
 S         -2.8699883594       -1.0645165452        1.5771708766
 O         -3.7991724660       -1.7930372071        2.4202792068
 O         -1.4967029453       -1.0604484086        2.0292257051
 C         -3.0120762731       -1.6994264934       -0.0776866200
 C         -4.0300321121       -1.2455154122       -0.8920800674
 C         -4.1635297127       -1.7895055764       -2.1589480394
 C         -3.2878636038       -2.7768023722       -2.5837917483
 C         -2.2756097858       -3.2249256793       -1.7511275333
 C         -2.1336265398       -2.6819267024       -0.4845475053
 H         -1.3460979596       -2.9883981537        0.1859487577
 H         -1.5874698859       -3.9851049707       -2.0845230355
 H         -3.3905671587       -3.1964691691       -3.5723179214
 H         -4.9467237544       -1.4390647928       -2.8120690411
 H         -4.6879237024       -0.4717934306       -0.5324075789
 H         -4.1668574211        0.6515361035        2.2591873772
 H         -3.6091103488        2.9492954757        2.5397562089
 H         -2.0753311731        4.7941796686        1.9642783676
 H         -0.2262967256        4.4218463416        0.3798297648
 H          1.0702373079        2.9959483428       -0.9072642950
 C         -0.1168431096        2.0263314540       -2.3949676564
 C         -0.4422289693        3.2793083511       -3.1494523647
 C          0.7627532965        2.4704117629       -3.5234145166
 H          0.7441621222        1.9042220868       -4.4422509511
 H          1.7379792689        2.8620922024       -3.2725406129
 H         -1.2924953655        3.2721991851       -3.8135518561
 H         -0.2825148119        4.2220976383       -2.6486780587
 H         -0.7413643820        1.1588220269       -2.5621268336
