  62
        -98.93823506
 C          2.4918161444        0.7108517771        0.0239920573
 C          2.8905082662       -0.4479427783        0.7390566193
 C          4.0245294530       -1.2003174850        0.1895940212
 C          4.6005642948       -0.7748824635       -0.9493018277
 C          5.7946236535       -1.4117438901       -1.5979936026
 C          7.1015030698       -0.7822966790       -1.0957134069
 C          7.1916380955       -0.6796751959        0.4268507348
 H          8.1659669837       -0.2485728223        0.6669370092
 H          6.4336639171        0.0222008148        0.7822449107
 C          7.0280238885       -2.0163433098        1.1638144535
 H          7.1893829773       -2.8432803235        0.4714037211
 H          7.7961598768       -2.0863417699        1.9369146879
 C          5.6776224614       -2.1954866989        1.8601331131
 H          5.4688895162       -1.3233593765        2.4850212145
 H          5.7490624752       -3.0623621590        2.5225158081
 C          4.4750744131       -2.4245580386        0.9357507293
 H          3.6277805848       -2.7229147332        1.5600352834
 H          4.6942523473       -3.2389900683        0.2422667910
 H          7.1833243111        0.2244173554       -1.5120186277
 H          7.9373559842       -1.3746426571       -1.4724134810
 H          5.7886974067       -2.4795120459       -1.3877580433
 H          5.7206215656       -1.2620216426       -2.6763666719
 O          4.1805669688        0.3254585004       -1.6198400518
 C          3.1212855750        1.1006758779       -1.1592655558
 O          2.8647254049        2.0742817528       -1.8891841537
 O          2.3223734912       -0.8296568929        1.7982723775
 C          1.3296150169        1.4947225593        0.6069815262
 C          0.0187546586        1.0075308220        0.0440827645
 C         -0.1934381297        0.9243765888       -1.3285848889
 C         -1.4065797170        0.4814118838       -1.8230790610
 C         -2.4268069649        0.1074408648       -0.9655670191
 C         -2.2251665113        0.1832119187        0.4056112011
 C         -1.0070808179        0.6340758722        0.8995790985
 H         -0.8492918089        0.6802251430        1.9689279199
 N         -3.2500058765       -0.2119087862        1.2798554087
 S         -4.7981255242        0.3888981677        1.0334039143
 O         -4.7623313707        1.6843177127        0.3960463871
 O         -5.4356686431        0.3259219063        2.3300349072
 C         -5.5577999981       -0.8057175217       -0.0459151810
 C         -5.6000638072       -2.1231105928        0.3666219019
 C         -6.1953295415       -3.0636140382       -0.4586907076
 C         -6.7379905098       -2.6727998259       -1.6738849484
 C         -6.6913764170       -1.3454866462       -2.0717281461
 C         -6.0961993586       -0.3998065101       -1.2512241543
 H         -6.0332270677        0.6423774328       -1.5215713641
 H         -7.1146707514       -1.0434722945       -3.0162489971
 H         -7.2005529525       -3.4070722013       -2.3144064198
 H         -6.2341594477       -4.0966764531       -0.1526620477
 H         -5.1716499625       -2.3855716590        1.3195337691
 H         -2.9955970594       -0.1728450236        2.2561842077
 H         -3.3716573494       -0.2410798192       -1.3490405815
 H         -1.5590443487        0.4236119422       -2.8902270796
 H          0.6008159529        1.2148488341       -1.9997515642
 H          1.3371656103        1.2431709894        1.6798551317
 C          1.4999753954        3.0035916885        0.5009713024
 C          0.6774719321        3.8782089699       -0.3915831984
 C          0.4655681917        3.9171351026        1.0902836728
 H          0.7925231279        4.7856564214        1.6416965550
 H         -0.4376969647        3.4649286077        1.4733997244
 H          1.1742950415        4.7077366173       -0.8708281658
 H         -0.0845504211        3.4193195098       -1.0012612483
 H          2.5360424179        3.2998454219        0.6312863802
