  62
        -98.94368412
 C         -1.5707029810       -1.4311658415        0.0747297389
 C         -2.0220818019       -0.4729457627        1.0144074879
 C         -3.0891096939        0.4212208658        0.5520334505
 C         -3.5874350687        0.2801317827       -0.6897685160
 C         -4.6880810007        1.1068195044       -1.2979095432
 C         -4.2076610250        2.4294501188       -1.9115570689
 C         -3.7891879231        3.5018383342       -0.9044031145
 H         -3.6820830191        4.4367032279       -1.4582284243
 H         -4.5875363296        3.6454020655       -0.1757766253
 C         -2.4705778009        3.2057661628       -0.1754646826
 H         -1.8443282937        4.1009307708       -0.1773193386
 H         -1.9225910060        2.4321326337       -0.7194173590
 C         -2.6349555309        2.7664598745        1.2797878737
 H         -1.6449257797        2.5335625364        1.6796686987
 H         -3.0545737373        3.5877454847        1.8644473475
 C         -3.5200115378        1.5272732913        1.4669306895
 H         -3.4035460198        1.1745747430        2.4943309949
 H         -4.5663773131        1.7797744275        1.2987369777
 H         -5.0286320321        2.8270176935       -2.5127497889
 H         -3.3748704113        2.2188474493       -2.5871281801
 H         -5.1305345375        0.5009959421       -2.0916353017
 H         -5.4530581461        1.3087471057       -0.5477277440
 O         -3.1402585263       -0.6678899344       -1.5564329374
 C         -2.0981685687       -1.5208139734       -1.2130992910
 O         -1.7466458122       -2.2929237495       -2.1249823053
 H          0.3772514665        0.0149454882       -0.4989430538
 C          1.0772966358       -0.7734912125       -0.7490061350
 C          0.8025891823       -2.0761352718       -0.3527767115
 C          1.7229733839       -3.0663319769       -0.6759134111
 C          2.8777678508       -2.7584331529       -1.3753415497
 C          3.1452178560       -1.4586185234       -1.7662116737
 C          2.2300956566       -0.4642320232       -1.4536839743
 N          2.5211587215        0.8776238261       -1.8112085255
 S          3.5734238764        1.6239213484       -0.7364653875
 O          3.6190207051        3.0162866374       -1.1203222160
 O          4.8229368827        0.9088171798       -0.7577601748
 C          2.7801376548        1.4439836494        0.8500033711
 C          1.9345918829        2.4423551745        1.2907561559
 C          1.2311750200        2.2531826149        2.4692148753
 C          1.3658146660        1.0652397049        3.1708539922
 C          2.2179532220        0.0723605204        2.7136076818
 C          2.9345180852        0.2593264637        1.5424996080
 H          3.6079306185       -0.4893846242        1.1572791923
 H          2.3178239021       -0.8513902541        3.2604768681
 H          0.7951209833        0.9083897296        4.0720643766
 H          0.5727633457        3.0264612542        2.8326230632
 H          1.8504419358        3.3473555342        0.7097687518
 H          1.6914987849        1.4499046686       -1.8893556216
 H          4.0481153990       -1.1956047851       -2.2922363215
 H          3.5804189903       -3.5412337749       -1.6167757412
 H          1.5359207301       -4.0843222191       -0.3752810282
 C         -0.4323910134       -2.3490489270        0.4712567449
 H         -0.1971299224       -2.0780497944        1.5127340485
 C         -0.8682829662       -3.7994558495        0.4339931405
 C         -0.3241616817       -4.7836609085        1.4250221186
 C         -1.7431954488       -4.3163756552        1.5355924388
 H         -2.5375962792       -5.0029866718        1.2845485043
 H         -1.9957635478       -3.6296152825        2.3303136582
 H          0.3834205656       -4.4219897234        2.1556325350
 H         -0.1446942179       -5.7971747821        1.0989592571
 H         -1.0755665626       -4.1451589701       -0.5723380333
 O         -1.5496872019       -0.3660863521        2.1763062587
