  62
        -98.93706263
 C         -2.4943236043       -1.4254670699        0.1367338645
 C         -2.5944143469       -0.4144013148       -0.8486613848
 C         -3.4811204716        0.7143174648       -0.5268026587
 C         -4.1444681876        0.7384674582        0.6421400529
 C         -5.1062613782        1.7970984301        1.1113557927
 C         -4.4994061494        3.1895446417        1.3724176625
 C         -4.6008930407        4.1560464675        0.1859499281
 H         -5.4351174817        3.8501499970       -0.4465175292
 H         -4.8424090619        5.1513630212        0.5642323847
 C         -3.3379026154        4.3007088414       -0.6689429347
 H         -2.6240524850        4.9424934281       -0.1472715233
 H         -3.6179267608        4.8067398382       -1.5954776059
 C         -2.6094937738        3.0017323237       -1.0170660666
 H         -2.0468766865        2.6497773194       -0.1477260133
 H         -1.8662417229        3.2235158691       -1.7864511622
 C         -3.5248702672        1.8583772060       -1.4978093848
 H         -4.5460047419        2.2123722074       -1.6294867712
 H         -3.1663246696        1.4735468824       -2.4545226456
 H         -3.4612865780        3.0805750071        1.6866050892
 H         -5.0471454482        3.6217683149        2.2112810259
 H         -5.5306654663        1.4130213813        2.0410469334
 H         -5.9164509317        1.8847305927        0.3842331272
 O         -4.0353336181       -0.2616573599        1.5575644046
 C         -3.2023107210       -1.3435010926        1.3408520924
 O         -3.1839091403       -2.1666596924        2.2774077975
 O         -1.9907506904       -0.4287734546       -1.9557334334
 C         -1.5880550969       -2.6412035087       -0.0024525372
 C         -0.1639724479       -2.2356019879        0.2948266483
 C          0.4460430601       -2.6077171795        1.4873780937
 C          1.7305808431       -2.1862867345        1.7830481411
 C          2.4288108429       -1.3800792819        0.9015778925
 C          1.8226203779       -0.9929949029       -0.2860569519
 C          0.5427925631       -1.4325246228       -0.5890388920
 H          0.0702531546       -1.1088733331       -1.5043003396
 N          2.5144250180       -0.1499964062       -1.1786547084
 S          3.0502825655        1.3156979971       -0.5516361852
 O          2.2262216523        1.7546188346        0.5521529147
 O          3.1398150278        2.2107772640       -1.6847962391
 C          4.6956685394        0.9462093588        0.0215090166
 C          5.0435332843        1.2007951708        1.3335111108
 C          6.3323735792        0.9098699587        1.7535418349
 C          7.2453645201        0.3733816372        0.8586228005
 C          6.8807915342        0.1258939486       -0.4566374677
 C          5.5945523404        0.4153426238       -0.8830784000
 H          5.2710832578        0.2416188194       -1.8957082447
 H          7.5936494102       -0.2912824325       -1.1495090558
 H          8.2469528594        0.1467917890        1.1884289263
 H          6.6173097482        1.1018101785        2.7755472210
 H          4.2975198746        1.6123052687        1.9947484427
 H          2.0013224833        0.0132878743       -2.0343803543
 H          3.4255792787       -1.0397391890        1.1308276975
 H          2.1912307701       -2.4838291010        2.7127479038
 H         -0.1049971506       -3.2133846645        2.1924751809
 H         -1.9084296478       -3.3391110233        0.7822239941
 C         -1.7179068245       -3.3357939055       -1.3431132573
 C         -1.2474626728       -4.7523253522       -1.4711878727
 C         -2.7137393157       -4.4438268514       -1.4979923550
 H         -3.2446575552       -4.5309072648       -2.4340542754
 H         -3.3072396674       -4.7066567363       -0.6342608017
 H         -0.7686137356       -5.0545509075       -2.3897812303
 H         -0.8461869275       -5.2262934907       -0.5882052653
 H         -1.5764734529       -2.6776777904       -2.1897158814
