  62
        -98.93831830
 C          2.1933424270        0.9010842731       -0.0859508006
 C          2.9136213130        0.2231355471        0.9225456561
 C          3.7269728821       -0.9287854103        0.4944151857
 C          3.7328350350       -1.2852935197       -0.8040050122
 C          4.4249274885       -2.4253457406       -1.5221499036
 C          5.5353175351       -3.2206251856       -0.8406182778
 C          6.8214817180       -2.4346388319       -0.5875711864
 H          7.4992272227       -3.0656171239       -0.0085061888
 H          7.2979053071       -2.2299852120       -1.5495919184
 C          6.6481984006       -1.0997269213        0.1325189811
 H          7.6372760924       -0.6457288490        0.2375610969
 H          6.0490546223       -0.4254759883       -0.4828044498
 C          6.0269395365       -1.1837908308        1.5252376273
 H          6.1068767127       -0.1935132110        1.9818660238
 H          6.5967370160       -1.8822069402        2.1412218594
 C          4.5443216042       -1.5924996994        1.5653340379
 H          4.4305551946       -2.6732320953        1.5225031154
 H          4.1276508302       -1.2578217804        2.5201454581
 H          5.1706657006       -3.6633066263        0.0816604782
 H          5.7816754693       -4.0477503524       -1.5119456301
 H          3.6283475970       -3.1201489157       -1.8105500099
 H          4.8109996069       -1.9983242562       -2.4531555579
 O          2.9927971734       -0.6173459383       -1.7373924463
 C          2.2150776088        0.4827649882       -1.4151847386
 O          1.6070963352        0.9821751316       -2.3793192121
 H         -0.0387580118       -0.0907215061        0.8552389913
 C         -0.6614754268        0.6353003266        0.3457276867
 C         -0.1038449004        1.8486472213       -0.0397851845
 C         -0.9186294136        2.7765720971       -0.6743084766
 C         -2.2463965475        2.4821031555       -0.9335245942
 C         -2.7905078503        1.2659267336       -0.5655239777
 C         -1.9891807627        0.3356989791        0.0841403814
 N         -2.5312097118       -0.9073218992        0.4578775398
 S         -3.9509816926       -0.9104499654        1.3564393168
 O         -4.0747619358        0.2889958114        2.1519651348
 O         -3.9375488904       -2.1633781048        2.0796839762
 C         -5.2375382095       -0.9646524580        0.1271361482
 C         -6.2092547546        0.0164817101        0.1026220283
 C         -7.2059471489       -0.0518371521       -0.8584949172
 C         -7.2136077369       -1.0948882146       -1.7718359523
 C         -6.2317017817       -2.0737828898       -1.7319766491
 C         -5.2329926757       -2.0117477586       -0.7734570571
 H         -4.4544265535       -2.7533054473       -0.7059771217
 H         -6.2408561274       -2.8832824911       -2.4439959628
 H         -7.9894691706       -1.1458614311       -2.5193141371
 H         -7.9702399798        0.7078711796       -0.8911885528
 H         -6.1598472388        0.8107239101        0.8303288488
 H         -1.8550808342       -1.5356226721        0.8674731523
 H         -3.8215646870        1.0309347746       -0.7730151528
 H         -2.8655095155        3.2104193049       -1.4345718317
 H         -0.5136410797        3.7300176355       -0.9707493008
 C          1.3473418847        2.1035167511        0.2878712633
 H          1.4348777774        2.1944178499        1.3814557434
 C          1.9045016831        3.3587290287       -0.3502711726
 C          1.7348323932        4.6883533777        0.3200071085
 C          3.0810756702        4.0313911956        0.2889136145
 H          3.8465352669        4.4478001015       -0.3485059272
 H          3.4624136086        3.5992696917        1.2028225479
 H          1.5782057684        5.5606473936       -0.2963891913
 H          1.2039597692        4.7103894655        1.2598233888
 H          1.8776848509        3.3207674559       -1.4334691820
 O          2.8708157288        0.5564452154        2.1389575497
