  62
        -98.94591548
 C         -1.2884602066       -1.4248712539        0.6173999164
 C         -2.3590913518       -1.3131385568       -0.3040233185
 C         -3.3593928776       -0.2756288891       -0.0041757171
 C         -3.2143448588        0.4932878361        1.0891359292
 C         -4.1402725833        1.6055877998        1.4880648974
 C         -3.7058035430        2.9533916228        0.8948290155
 C         -3.3886344962        2.9000032403       -0.5994101804
 H         -3.1187292557        3.9117958759       -0.9091178440
 H         -2.5138725554        2.2657051373       -0.7589310361
 C         -4.5437118090        2.3939924277       -1.4743478764
 H         -4.6315903358        3.0427998633       -2.3482604639
 H         -5.4836187771        2.4624114763       -0.9252421378
 C         -4.3648798172        0.9671050351       -1.9954096285
 H         -5.1154863636        0.7920503980       -2.7707345761
 H         -3.3820332958        0.8668041455       -2.4625049320
 C         -4.5187605627       -0.1463380180       -0.9519230405
 H         -5.4518662099       -0.0088346764       -0.4015820883
 H         -4.5736810942       -1.0982289661       -1.4879528381
 H         -4.5021221733        3.6782716602        1.0736388457
 H         -2.8149182386        3.2971333596        1.4256092347
 H         -4.1361088661        1.6796586398        2.5771127990
 H         -5.1481408361        1.3620463266        1.1566911079
 O         -2.1726525219        0.3588480883        1.9504610452
 C         -1.1949262286       -0.5985457441        1.7403684781
 O         -0.3060673155       -0.6168025179        2.6166885716
 O         -2.5000811150       -2.0371986372       -1.3229671356
 C         -0.1683731178       -2.4418466540        0.4513806377
 C          0.7996152924       -1.9647753964       -0.6054771151
 C          0.5359700619       -2.0956729409       -1.9650032495
 C          1.4403669139       -1.6260102025       -2.8997912887
 C          2.6132968294       -1.0083784464       -2.5029120755
 C          2.8839876207       -0.8674637158       -1.1470436970
 C          1.9817316658       -1.3526761805       -0.2105357414
 H          2.2083998901       -1.2462424517        0.8398177454
 N          4.0701409557       -0.2517023981       -0.7146949225
 S          4.0296447180        0.8246742611        0.5653545043
 O          5.2519493164        1.5868794288        0.4253617918
 O          3.8684475994        0.1140065799        1.8070880662
 C          2.6265656881        1.8727785163        0.2326100031
 C          1.4435824763        1.6985059864        0.9194471208
 C          0.3600479390        2.5000037873        0.5946019418
 C          0.4738362165        3.4531888554       -0.4041906641
 C          1.6726134066        3.6191029378       -1.0819862597
 C          2.7585710548        2.8211805197       -0.7641907927
 H          3.7110112788        2.9287535373       -1.2575299760
 H          1.7603264544        4.3650754232       -1.8552711153
 H         -0.3754807042        4.0705330228       -0.6511865399
 H         -0.5670439123        2.3623201186        1.1288122248
 H          1.3708873992        0.9501196711        1.6933736300
 H          4.6538072585        0.0964348911       -1.4617036065
 H          3.3167464193       -0.6406671531       -3.2342791813
 H          1.2257076196       -1.7353142906       -3.9519896930
 H         -0.3915731779       -2.5443722379       -2.2818528219
 H          0.3683146457       -2.4495101869        1.4100379443
 C         -0.6776662227       -3.8434745286        0.1803609930
 C          0.2439196602       -5.0028084897        0.4047073563
 C         -0.9098197051       -4.7711770237        1.3329256584
 H         -1.7518224817       -5.4457462036        1.2901335101
 H         -0.6995442866       -4.3995050109        2.3257551597
 H          0.1965858459       -5.8389061747       -0.2758785189
 H          1.2376488135       -4.7871846876        0.7686936388
 H         -1.3718729307       -3.9027644428       -0.6468328331
