  62
        -98.94345220
 C         -1.8653342906       -0.8278531997        0.7216166588
 C         -2.1967768602       -0.4332682598       -0.5971678913
 C         -3.6291860201       -0.4569106698       -0.9277584317
 C         -4.5141132804       -0.8681259597       -0.0012347420
 C         -6.0034557403       -0.8854450898       -0.1857012324
 C         -6.6346199305        0.4329244303        0.2837299473
 C         -5.9439831203        1.6795776602       -0.2695204125
 H         -6.4915411905        2.5475187403        0.1044292373
 H         -4.9322850005        1.7383270903        0.1387194678
 C         -5.8747107199        1.7396104801       -1.8018623125
 H         -6.6015957298        1.0499190901       -2.2324478727
 H         -6.1513094498        2.7453839501       -2.1251974227
 C         -4.4912306397        1.4482989601       -2.3865110221
 H         -4.5032384894        1.7297287801       -3.4428351921
 H         -3.7440113599        2.0729496402       -1.8902248019
 C         -4.0269268697       -0.0115454199       -2.3067880619
 H         -3.1277665095       -0.1077472499       -2.9221698916
 H         -4.7978201196       -0.6663545699       -2.7178659821
 H         -7.6859201504        0.4365975602       -0.0098073030
 H         -6.5865093808        0.4706185903        1.3745968474
 H         -6.2330735400       -1.0571487398       -1.2353872425
 H         -6.4141370605       -1.7052119897        0.4060738475
 O         -4.1522855708       -1.2719527097        1.2440021082
 C         -2.8254632609       -1.2461640196        1.6417622886
 O         -2.6322893212       -1.6116255996        2.8195944986
 O         -1.3444295100       -0.0768681998       -1.4510883011
 C         -0.4160944407       -0.8079962696        1.1694124792
 C          0.1803697193        0.5667961804        0.9863215993
 C         -0.5772178508        1.6897111904        1.3093745490
 C         -0.0605455508        2.9607794004        1.1536756691
 C          1.2326367194        3.1406077803        0.6950246995
 C          2.0050638495        2.0279537103        0.3887224498
 C          1.4764566294        0.7517257103        0.5304681897
 H          2.0925186995       -0.0975744897        0.2866476599
 N          3.3165304696        2.1746049803       -0.0855710398
 S          4.5185326995        1.1393375703        0.4431584106
 O          4.2977938691        0.7167983804        1.8065478905
 O          5.7515374795        1.8567721603        0.1951102009
 C          4.4428831398       -0.2598897597       -0.6549543094
 C          4.7543297997       -1.5100282297       -0.1580676992
 C          4.7459271499       -2.5964617497       -1.0191745391
 C          4.4271024803       -2.4142054498       -2.3558613492
 C          4.1182340504       -1.1517138699       -2.8392191794
 C          4.1298895702       -0.0606431498       -1.9849264195
 H          3.8899771203        0.9319120502       -2.3278690196
 H          3.8666889707       -1.0143660899       -3.8785821495
 H          4.4173264905       -3.2611106599       -3.0238089092
 H          4.9855857198       -3.5789083497       -0.6439914090
 H          4.9831726793       -1.6089120796        0.8911327809
 H          3.6442150596        3.1273901703       -0.1479866698
 H          1.6394446494        4.1332918903        0.5749609996
 H         -0.6662109708        3.8207164104        1.3981729189
 H         -1.5847697209        1.5517711604        1.6786558188
 H         -0.4246824311       -1.0313178596        2.2470784993
 C          0.3575204395       -1.8972148997        0.4541049995
 C          1.5125231593       -2.5766244196        1.1242399499
 C          0.2203120193       -3.3104618197        0.9320128096
 H          0.1802205596       -4.1017076697        0.1988399996
 H         -0.4079304809       -3.4811977796        1.7944118594
 H          2.3589345795       -2.8646706697        0.5191267302
 H          1.7739474090       -2.2543743396        2.1213018100
 H          0.4110901898       -1.7320665797       -0.6160101005
