  62
        -98.93812738
 C          2.1375726095        1.5012401397        0.0635756711
 C          1.9693336094        0.4560771897       -0.8748761889
 C          2.9452869991       -0.6469623905       -0.8032177487
 C          3.8901740589       -0.6371964708        0.1519431816
 C          4.9900819485       -1.6386977111        0.4014524619
 C          4.6414275682       -3.1276359510        0.2710512418
 C          3.2097202580       -3.5009846606        0.6831931514
 H          3.2508678976       -4.3303434006        1.3915883414
 H          2.7344759781       -2.6605875305        1.1918994313
 C          2.3438657282       -3.9348633804       -0.5017384788
 H          2.9377979381       -4.5825305905       -1.1503689687
 H          1.5064768179       -4.5273917501       -0.1273472190
 C          1.7577505487       -2.7949083102       -1.3330057190
 H          0.9862383687       -2.2740083900       -0.7596381092
 H          1.2711879488       -3.2319675401       -2.2081486691
 C          2.7690272791       -1.7430308105       -1.8148589887
 H          3.7198956990       -2.2001810307       -2.0782163985
 H          2.3548246294       -1.2647547604       -2.7066760588
 H          4.8119737984       -3.4526452110       -0.7543993082
 H          5.3534950479       -3.6719094312        0.8938424420
 H          5.8205244788       -1.4056166713       -0.2715921279
 H          5.3349191683       -1.4313488012        1.4174539520
 O          3.9906746789        0.3732761992        1.0619516216
 C          3.1363500892        1.4589627894        1.0384263314
 O          3.3617027792        2.3084490393        1.9237500015
 H         -1.0058084200        1.9658482705       -1.3484268597
 C         -1.1660082403        1.9233714006       -0.2831524197
 C         -0.1418395204        2.2763127903        0.5811741606
 C         -0.3604351708        2.1760798604        1.9525300405
 C         -1.5823821610        1.7556986107        2.4426081402
 C         -2.6081303609        1.4161896910        1.5771793499
 C         -2.3909418606        1.4863783809        0.2076629600
 N         -3.4166954304        1.1411065012       -0.6868615703
 S         -4.3996974609       -0.1764827285       -0.3924991105
 O         -5.0409084206       -0.4489070784       -1.6584513607
 O         -5.2779844211        0.1174477117        0.7127533693
 C         -3.3114981113       -1.5212035088        0.0399290498
 C         -2.6368026412       -2.1636637190       -0.9792351001
 C         -1.7776396816       -3.2032641193       -0.6643799999
 C         -1.5964550320       -3.5705634593        0.6602889002
 C         -2.2784257921       -2.9142825991        1.6725382000
 C         -3.1488148718       -1.8815521089        1.3621552098
 H         -3.7109040818       -1.3618108687        2.1201496697
 H         -2.1372554325       -3.2048066492        2.7012259701
 H         -0.9225534923       -4.3766153495        0.9046991404
 H         -1.2513173015       -3.7202693694       -1.4502763297
 H         -2.8058535309       -1.8536223590       -1.9978250601
 H         -3.1356992502        1.1713240211       -1.6557707802
 H         -3.5734211711        1.1083804012        1.9436254597
 H         -1.7421005813        1.6960854807        3.5085871102
 H          0.4449095991        2.4302004701        2.6279081307
 C          1.2159777498        2.7108279599        0.0850212209
 H          1.6411916098        3.3948416698        0.8315583910
 C          1.1780711703        3.4196461699       -1.2529318091
 C          0.6072155607        4.8026793201       -1.3303407192
 C          2.0825740707        4.5905364097       -1.4856399789
 H          2.5221872510        4.7154055396       -2.4639713888
 H          2.7309587706        4.8912628995       -0.6754715687
 H          0.2526296906        5.2468458002       -0.4124107693
 H          0.0323524110        5.0772094903       -2.2016376494
 H          1.0108282404        2.7546837400       -2.0905077991
 O          1.0650810697        0.4364982100       -1.7503899391
