  62
        -98.93875538
 C         -1.9620779282       -1.3157899664       -0.0580642541
 C         -2.6156562317       -0.6879691296        1.0250630183
 C         -3.7956738163        0.1395377429        0.7064154160
 C         -4.1687528463        0.2627281725       -0.5813176771
 C         -5.2998928495        1.0797548445       -1.1464534764
 C         -4.9775002610        2.5825179477       -1.1958164750
 C         -4.2941397393        3.1365621311        0.0519288651
 H         -3.3708268498        2.5818830533        0.2305279975
 H         -4.0127487118        4.1725080785       -0.1557937825
 C         -5.1456471563        3.1289239660        1.3193959864
 H         -4.5635367649        3.6185122718        2.1045563852
 H         -6.0430328150        3.7281824620        1.1501123637
 C         -5.5718495103        1.7516734063        1.8313971651
 H         -5.9623503908        1.8882968478        2.8441371839
 H         -6.3886426298        1.3500538067        1.2380939588
 C         -4.4428251158        0.7309500734        1.9359768209
 H         -3.6266568196        1.1606209239        2.5281833784
 H         -4.8021429105       -0.1248017196        2.5205301641
 H         -5.9040001743        3.1291284820       -1.3789419208
 H         -4.3101168985        2.7561750225       -2.0436419101
 H         -5.4623972719        0.7264254003       -2.1670339071
 H         -6.2102655732        0.8956650042       -0.5839028306
 O         -3.4919533202       -0.3439028951       -1.5981232261
 C         -2.3830480177       -1.1397705525       -1.3757235728
 O         -1.8758004128       -1.6201148985       -2.4063173240
 H          0.0539964064        0.3437317049        0.3007736279
 C          0.7271769055       -0.2508069528       -0.3046423289
 C          0.4666697162       -1.6062481208       -0.4700036964
 C          1.3482375023       -2.3595641032       -1.2333050597
 C          2.4376904653       -1.7598569593       -1.8426356504
 C          2.6786138980       -0.4068236218       -1.6967484058
 C          1.8156276004        0.3521832553       -0.9151730831
 N          2.0588866111        1.7244007166       -0.7433378563
 S          3.6307362393        2.2260992706       -0.4701289854
 O          3.5083408889        3.4598990517        0.2742886458
 O          4.3371350958        2.3166215104       -1.7237077698
 C          4.3637485060        0.9539486235        0.5439551108
 C          5.4699856340        0.2638885072        0.0921251083
 C          6.0054579287       -0.7379986583        0.8858059210
 C          5.4257097046       -1.0332136135        2.1096260132
 C          4.3166463045       -0.3279914573        2.5517490432
 C          3.7786058166        0.6759594646        1.7634884504
 H          2.9194993934        1.2447067449        2.0819982329
 H          3.8665316887       -0.5579609716        3.5041953430
 H          5.8394648526       -1.8166767495        2.7245759741
 H          6.8690318556       -1.2863269424        0.5457297102
 H          5.8867797121        0.5239753490       -0.8672096457
 H          1.4075767262        2.1869898984       -0.1272671388
 H          3.5098215611        0.0766735902       -2.1836259271
 H          3.1064827796       -2.3551399675       -2.4450450943
 H          1.1771500255       -3.4152508613       -1.3625494927
 C         -0.7476871783       -2.1841214346        0.2147173969
 H         -0.5864765382       -2.1252126035        1.3015791162
 C         -1.0311125220       -3.6237339674       -0.1580820098
 C         -0.3366070411       -4.7409949225        0.5598722010
 C         -1.7919615625       -4.4829267067        0.8053871405
 H         -2.5161872598       -5.1808412705        0.4127481116
 H         -2.0831250022       -4.0361273260        1.7449489383
 H         -0.0618161892       -5.6218594483       -0.0003926612
 H          0.3620808211       -4.4765257052        1.3388698295
 H         -1.2472144738       -3.7450448574       -1.2135181975
 O         -2.2253568758       -0.8006061270        2.2199513432
