  62
        -98.95134071
 C         -2.3391310308       -0.0419003729        0.1146270508
 C         -1.5982302918        0.5116213982       -0.9560656293
 C         -1.4067730436        1.9661846184       -0.9172620392
 C         -1.8428654941        2.6659073277        0.1458596710
 C         -1.7240389459        4.1534195579        0.3384871611
 C         -0.3566045163        4.6023125595        0.8713101407
 C          0.7772988434        4.5870521711       -0.1542430397
 H          1.6070436228        5.1482328720        0.2803042001
 H          0.4596030424        5.1162003708       -1.0538570295
 C          1.2780901850        3.1850171717       -0.5281407800
 H          0.9745344761        2.4671936413        0.2380555500
 H          2.3715752450        3.1824512431       -0.5405549404
 C          0.8125890952        2.6878769813       -1.8958908399
 H          1.2158216464        1.6841653218       -2.0418531901
 H          1.2219630141        3.3334156119       -2.6768112600
 C         -0.7098263348        2.6242944894       -2.0716840294
 H         -0.9229864544        2.0295735292       -2.9637372994
 H         -1.1094376861        3.6281156689       -2.2192247592
 H         -0.0853352153        3.9674100598        1.7186731705
 H         -0.4699658375        5.6240746193        1.2418855908
 H         -2.4877591261        4.4330134768        1.0675815614
 H         -1.9361734669        4.6654688777       -0.6008702588
 O         -2.4839002931        2.0844657068        1.1945920211
 C         -2.7536344014        0.7267675965        1.2011705711
 O         -3.3663192105        0.3273436856        2.2143900612
 O         -1.1312609613       -0.1712439412       -1.9056553296
 C         -2.6356862589       -1.5315693933        0.1468456108
 C         -1.3410775079       -2.3068814616        0.1875038803
 C         -1.0881965467       -3.4342820812       -0.5838722099
 C          0.1358470441       -4.0767035197       -0.5036406404
 C          1.1371019438       -3.5978056485        0.3219395293
 C          0.8898608426       -2.4749408789        1.1033898795
 C         -0.3510201982       -1.8616064805        1.0537577500
 H         -0.5334405690       -0.9944320008        1.6715576901
 N          1.8812675522       -1.9223791878        1.9409027293
 S          2.3544514201       -0.3452505372        1.6217499393
 O          3.4354521901       -0.0853244059        2.5481064789
 O          1.2199743590        0.5374983514        1.7029695297
 C          3.0063135397       -0.4122126662       -0.0378686010
 C          2.1415064195       -0.5730924571       -1.1021635607
 C          2.6712766793       -0.7071633363       -2.3771973709
 C          4.0435010792       -0.6738718546       -2.5675326713
 C          4.8982869393       -0.5087864336       -1.4877547116
 C          4.3772776896       -0.3843321344       -0.2103855614
 H          5.0012938797       -0.2586486837        0.6597028484
 H          5.9656937292       -0.4804609023       -1.6365186019
 H          4.4469121890       -0.7763223040       -3.5625089515
 H          1.9956330391       -0.8331384271       -3.2083785507
 H          1.0748794296       -0.5847062885       -0.9410280503
 H          2.7048309830       -2.5015368868        2.0341866289
 H          2.1004394244       -4.0833308573        0.3626698089
 H          0.3190513150       -4.9519842894       -1.1077921006
 H         -1.8475029265       -3.8067233621       -1.2517725597
 H         -3.1688996683       -1.7125571240        1.0921273209
 C         -3.5373744988       -1.9159004143       -1.0075944090
 C         -4.4986669173       -3.0568312255       -0.8689510488
 C         -5.0068852891       -1.6474429261       -0.8940452184
 H         -5.5378777698       -1.3028545667       -1.7685759582
 H         -5.3599705193       -1.2118486767        0.0298082317
 H         -4.6862335368       -3.6813928656       -1.7292536988
 H         -4.5180598463       -3.5834830556        0.0732709812
 H         -3.0724776993       -1.7491695236       -1.9721762091
