  62
        -98.94389545
 C         -1.7876896152       -0.4815435923       -0.3866808215
 C         -3.0258138201       -1.0966631332       -0.6889518372
 C         -4.1414308029       -0.7749304778        0.2106274650
 C         -3.9291516359        0.0516049863        1.2513229520
 C         -4.9877693914        0.5082403364        2.2120136419
 C         -5.6454598426        1.8110605595        1.7355850913
 C         -6.0966383569        1.7778522476        0.2753414150
 H         -6.5726960210        2.7369401075        0.0601786346
 H         -5.2171659057        1.7039347061       -0.3683290667
 C         -7.0678040663        0.6382712995       -0.0631241780
 H         -7.5113115000        0.2446947020        0.8522676171
 H         -7.8817421687        1.0399141300       -0.6704040877
 C         -6.4443642564       -0.5104836942       -0.8580746728
 H         -5.9208229935       -0.1107682187       -1.7302465423
 H         -7.2529789530       -1.1477025822       -1.2261241200
 C         -5.4725336989       -1.4081738858       -0.0819548443
 H         -5.9466108004       -1.7529362147        0.8394727660
 H         -5.2582488248       -2.2817034539       -0.7049782265
 H         -6.5025470421        2.0197681251        2.3784767269
 H         -4.9263539548        2.6248927238        1.8533391525
 H         -5.7384714088       -0.2727882502        2.3165674629
 H         -4.5200084524        0.6815875711        3.1827126973
 O         -2.7217142000        0.6086923605        1.5211219489
 C         -1.6215768121        0.3638512464        0.7107793773
 O         -0.5813302308        0.9429570882        1.0707290816
 H          2.0918789460       -0.4810335448       -1.7078093576
 C          1.8666066214       -1.1370039990       -0.8807430384
 C          0.5457572814       -1.3825790196       -0.5319588729
 C          0.2954925405       -2.2481310147        0.5285517855
 C          1.3329466587       -2.8218166175        1.2394751492
 C          2.6485043213       -2.5591840323        0.8996835059
 C          2.9106816875       -1.7183705854       -0.1716956233
 N          4.2565340789       -1.4518621105       -0.5147343252
 S          5.0809408894       -0.4248850808        0.5239585621
 O          6.4217917497       -0.3194495910       -0.0046359316
 O          4.9557603800       -0.9278550362        1.8668474242
 C          4.2374239846        1.1361834303        0.3459927411
 C          2.9926946100        1.2864805856        0.9238542104
 C          2.2814834259        2.4533365024        0.6915147618
 C          2.8302185921        3.4479039115       -0.1034324965
 C          4.0874954084        3.2872319399       -0.6676664630
 C          4.7953355177        2.1161803399       -0.4521828902
 H          5.7699768643        1.9432282137       -0.8795648692
 H          4.5112579746        4.0660563020       -1.2813454397
 H          2.2715747429        4.3530281808       -0.2846397132
 H          1.2935960292        2.5508415275        1.1133119591
 H          2.5834858550        0.5018745945        1.5394504390
 H          4.3652973500       -1.1104139812       -1.4604649776
 H          3.4704600998       -2.9790646621        1.4556801641
 H          1.1153285540       -3.4803448211        2.0670021714
 H         -0.7294624713       -2.4605852463        0.8004078408
 C         -0.5995181961       -0.7539724216       -1.2879688932
 H         -0.9594983328       -1.4851599608       -2.0283019385
 C         -0.1952678126        0.5158325512       -2.0124476403
 C          0.3127374026        0.4668541896       -3.4219579499
 C         -1.0539864642        1.0104800383       -3.1362256920
 H         -1.2205463468        2.0728365981       -3.2311540409
 H         -1.9099921804        0.4087418175       -3.4056951355
 H          1.0863274478        1.1609595785       -3.7152421607
 H          0.3794654257       -0.4993671010       -3.8994459480
 H          0.2277184065        1.2561186802       -1.3422370938
 O         -3.1878729562       -1.8807251091       -1.6634321596
