  62
        -98.93833308
 C         -2.2556684764       -1.0069816416        0.3799643744
 C         -2.4730910983       -0.1109114441       -0.6919879615
 C         -3.3291995671        1.0565926880       -0.4086389331
 C         -3.8354075163        1.2226515320        0.8274983048
 C         -4.6974004144        2.3217533655        1.4137405508
 C         -5.4038952025        3.3277304062        0.5087395164
 C         -6.5192212813        2.7384463830       -0.3542585468
 H         -7.3487701456        2.4539572625        0.2979844113
 H         -6.8786916059        3.5196233052       -1.0275368957
 C         -6.1384008865        1.5098798173       -1.1766176757
 H         -5.8689972493        0.6897768523       -0.5078973713
 H         -7.0246690738        1.1927984596       -1.7328994601
 C         -5.0092412604        1.7209302688       -2.1832551263
 H         -5.2512169872        2.5615399382       -2.8363617364
 H         -4.9488674162        0.8222203225       -2.8027952373
 C         -3.6158566739        1.9572833549       -1.5754174697
 H         -2.8689140706        1.7151327378       -2.3371277091
 H         -3.4754781837        2.9998904812       -1.3006051323
 H         -5.8566175477        4.0734079600        1.1680243719
 H         -4.6803204442        3.8522363291       -0.1082298034
 H         -5.4425642501        1.8149153216        2.0352721795
 H         -4.0475203983        2.8728847417        2.1027451303
 O         -3.5645226101        0.3461085302        1.8410105547
 C         -2.7827639782       -0.7788791780        1.6482266364
 O         -2.6272800134       -1.4796811274        2.6702403745
 H          0.1064353640       -0.3430555176        1.2588988260
 C          0.6314750577       -0.8307499011        0.4454835580
 C         -0.0056692407       -1.8499679261       -0.2519082047
 C          0.6855902553       -2.4794704151       -1.2783639232
 C          1.9693561531       -2.0787067033       -1.6069872211
 C          2.5908025650       -1.0503292757       -0.9235064995
 C          1.9147790016       -0.4235556941        0.1154707987
 N          2.5325770765        0.6301003326        0.8120816582
 S          4.0849310016        0.3890590681        1.4056036231
 O          4.3257685955       -1.0030230936        1.7075933234
 O          4.2161476070        1.3176310497        2.5073374973
 C          5.1394317945        0.9184860707        0.0724192976
 C          6.1073146737        0.0664101233       -0.4222244437
 C          6.9214053009        0.5052863844       -1.4549808479
 C          6.7546403161        1.7813313945       -1.9708027673
 C          5.7796001359        2.6257558074       -1.4607117000
 C          4.9633402843        2.1937945627       -0.4276926898
 H          4.1963220185        2.8189147752       -0.0016505962
 H          5.6524541402        3.6173320331       -1.8643893355
 H          7.3881903730        2.1203222605       -2.7751389870
 H          7.6802567132       -0.1491854455       -1.8526333247
 H          6.1961776432       -0.9191939238        0.0061862610
 H          1.9440351355        1.0481117628        1.5180138649
 H          3.5872461173       -0.7314856952       -1.1817618058
 H          2.4920339199       -2.5723503501       -2.4119284085
 H          0.2181179999       -3.2817473548       -1.8249338151
 C         -1.4004478356       -2.2431748169        0.1735832287
 H         -1.3266761201       -2.7289476181        1.1584054163
 C         -2.0823520429       -3.1937854073       -0.7885532861
 C         -1.8716328405       -4.6722897308       -0.6686973121
 C         -3.1856163171       -4.0682717125       -0.2762663377
 H         -4.0441263796       -4.2402464599       -0.9079704110
 H         -3.4252538233       -3.9980376734        0.7752412149
 H         -1.2210564941       -5.0229607708        0.1183616681
 H         -1.8312995541       -5.2630043457       -1.5713870806
 H         -2.1994417717       -2.7688859480       -1.7786547380
 O         -1.9722330857       -0.2687818613       -1.8348982507
