  62
        -98.93838375
 C          2.5159270572        0.1620704409        0.4593742971
 C          2.2667021505       -0.5529509393       -0.7335106632
 C          1.9566465726       -1.9900347581       -0.5986309646
 C          1.9232989283       -2.5339658926        0.6317912132
 C          1.6194896114       -3.9564605690        1.0257061098
 C          0.1241179968       -4.2937577779        0.9521245258
 C         -0.5688308094       -3.8529411505       -0.3337280093
 H         -1.6280840199       -4.1076194411       -0.2379279911
 H         -0.5135544194       -2.7655417414       -0.4154058405
 C         -0.0453059494       -4.5057058543       -1.6115606377
 H         -0.1116294791       -5.5914820812       -1.5107344695
 H         -0.7147913020       -4.2050514326       -2.4211624513
 C          1.3830734894       -4.1386277699       -2.0243607433
 H          2.1193835006       -4.7116800015       -1.4667177875
 H          1.5004582112       -4.4216798817       -3.0744166562
 C          1.7046174175       -2.6510024497       -1.9317322976
 H          2.5994580074       -2.4448995101       -2.5311526849
 H          0.9012066117       -2.0756967417       -2.4064717411
 H         -0.3785536786       -3.7957678966        1.7855571420
 H          0.0102852886       -5.3722046665        1.0815398256
 H          2.1978422879       -4.6457461568        0.4174067764
 H          1.9497853718       -4.0677437397        2.0613383051
 O          2.1667804250       -1.8001411812        1.7583497014
 C          2.4419890415       -0.4488637717        1.7079068358
 O          2.6114960337        0.0891664184        2.8241199089
 H          0.1980199758        1.0261619653        0.5819179653
 C          0.3453450828        1.8890884405       -0.0512749525
 C          1.6319794219        2.3670250214       -0.2629617873
 C          1.7960753476        3.4949817332       -1.0566130733
 C          0.6964887887        4.1113037905       -1.6301196069
 C         -0.5788283703        3.6135907715       -1.4402466801
 C         -0.7526621359        2.4798313676       -0.6516665963
 N         -2.0267028178        1.9097302927       -0.4969251611
 S         -2.3005589509        0.6353069136        0.5596954649
 O         -2.0589289789        1.0403230839        1.9293830562
 O         -1.5831833082       -0.5224837694        0.0917216565
 C         -4.0501037974        0.4115403082        0.3004945877
 C         -4.4715538184       -0.3902762142       -0.7429448823
 C         -5.8310479614       -0.5407089816       -0.9662505755
 C         -6.7417948053        0.1112965518       -0.1482301419
 C         -6.3044109099        0.9112803947        0.8967139213
 C         -4.9460388949        1.0653977954        1.1252079052
 H         -4.5598344622        1.6667181927        1.9325612292
 H         -7.0145112069        1.4139555184        1.5333482920
 H         -7.7992143229       -0.0075000819       -0.3241155562
 H         -6.1742432853       -1.1650303183       -1.7753022237
 H         -3.7256859823       -0.8818307456       -1.3459323184
 H         -2.7903937571        2.5681219339       -0.5398157863
 H         -1.4317316956        4.0857151525       -1.9022457236
 H          0.8371628048        4.9897768749       -2.2415045129
 H          2.7843484764        3.8900234420       -1.2272118735
 C          2.7833432104        1.6539777933        0.4071060955
 H          2.8290539249        1.9906134396        1.4546371071
 C          4.1186824642        1.9306938431       -0.2544490855
 C          4.9620351864        3.0875653895        0.1880629631
 C          5.3737077639        1.6873863824        0.5269058647
 H          6.2238081923        1.2585122545        0.0181838021
 H          5.2603017763        1.3511797401        1.5477337884
 H          5.5353813085        3.6214001404       -0.5548005478
 H          4.5823764946        3.7078277347        0.9861057960
 H          4.1213720900        1.6627982411       -1.3047086766
 O          2.3020491973       -0.0198428046       -1.8746088247
