  62
        -98.93322250
 C          1.8203798898        1.0536086315        0.4172581754
 C          2.3997482639       -0.0589343195        1.0781775669
 C          3.8606272028       -0.2087014899        0.9801457366
 C          4.5677551160        0.7015269898        0.2895108368
 C          6.0605611539        0.7798118674        0.0881405315
 C          6.8052144698       -0.5290560106       -0.2063896487
 C          6.0105347652       -1.5569280820       -1.0250671114
 H          5.1083676960       -1.0963384391       -1.4313544545
 H          6.6185786226       -1.8841664349       -1.8704975928
 C          5.6273124578       -2.7978626906       -0.2151388781
 H          5.4082351397       -3.6151400440       -0.9065713237
 H          6.4856964604       -3.1016699109        0.3881100833
 C          4.4095067436       -2.6377427310        0.6944453473
 H          4.3157073825       -3.5462773932        1.2945728581
 H          3.5011287414       -2.5605119291        0.0900371192
 C          4.4431804112       -1.4254713701        1.6393882155
 H          3.7935545191       -1.6464952327        2.4909068672
 H          5.4490890733       -1.2414335591        2.0091993053
 H          7.1200953947       -0.9882622249        0.7295729119
 H          7.7151403804       -0.2593974588       -0.7452182879
 H          6.4983613316        1.2485291099        0.9743450065
 H          6.1983157962        1.4745932006       -0.7438252226
 O          3.9735030033        1.7589545499       -0.3278423507
 C          2.5994481148        1.9633199670       -0.2975705723
 O          2.2336091424        2.9689523777       -0.9316300111
 O          1.7217174702       -0.8878761969        1.7437983087
 C          0.3127535977        1.2021465854        0.5263831916
 C         -0.3710187495        0.5203715781       -0.6309451077
 C         -0.0488038566        0.8451868847       -1.9461591139
 C         -0.6741439339        0.2031000821       -2.9984507564
 C         -1.6328010421       -0.7670608880       -2.7628613717
 C         -1.9546350294       -1.1060137217       -1.4537116962
 C         -1.3262710200       -0.4582544022       -0.3970615456
 H         -1.5624378965       -0.7524111760        0.6145037656
 N         -2.9051579995       -2.0991328827       -1.1950579981
 S         -3.8363601372       -2.0971330853        0.1842667186
 O         -3.0624927476       -2.5198702832        1.3240600827
 O         -4.9680740729       -2.9336606630       -0.1541303459
 C         -4.3868049203       -0.4147915155        0.4121060512
 C         -4.3334272899        0.1427050706        1.6734039266
 C         -4.7998840545        1.4350510873        1.8580883909
 C         -5.3042330569        2.1468955608        0.7808930298
 C         -5.3493228210        1.5739698645       -0.4807673240
 C         -4.8919061557        0.2798506414       -0.6694470275
 H         -4.9245412610       -0.1913696832       -1.6379889780
 H         -5.7387931642        2.1314221494       -1.3171232162
 H         -5.6599691588        3.1544752014        0.9253881998
 H         -4.7615295332        1.8815711265        2.8387223208
 H         -3.9210631132       -0.4413110186        2.4809844553
 H         -3.3923605938       -2.4635668850       -1.9992996874
 H         -2.1183728700       -1.2700965837       -3.5850482316
 H         -0.4154659995        0.4628746433       -4.0138753717
 H          0.6974150145        1.6033698795       -2.1292786297
 H          0.0445339480        0.6438713488        1.4377504046
 C         -0.1364030996        2.6434627220        0.7258078326
 C         -0.9645155343        3.4027845072       -0.2633799807
 C         -1.5782960393        2.9351444568        1.0193833193
 H         -1.8156203357        3.6629936584        1.7799690262
 H         -2.2675612125        2.1052657720        0.9691636231
 H         -0.7492604771        4.4530366567       -0.3865543377
 H         -1.2549983556        2.9086862821       -1.1764409946
 H          0.5987234854        3.2220599620        1.2755873191
