  62
        -98.94040583
 C          1.1492914125        0.9578500263        0.4656545255
 C          2.0493379401        0.7598776724       -0.6074595263
 C          3.0655282386       -0.2835394569       -0.4075459523
 C          3.0528268879       -1.0215465890        0.7167662102
 C          3.9709491924       -2.1671629093        1.0534864883
 C          5.4612951969       -1.8203468826        1.2353360405
 C          6.3105671878       -1.9961885697       -0.0296224455
 H          7.2717627579       -2.4316672652        0.2509828715
 H          5.8191294201       -2.7175041956       -0.6838477734
 C          6.6116415255       -0.7157224644       -0.8143039767
 H          7.4033251507       -0.1628021098       -0.3036933865
 H          6.9936579093       -1.0069972004       -1.7950896275
 C          5.4349162283        0.2412419968       -1.0054513421
 H          5.7265643197        0.9983190139       -1.7359655529
 H          5.2381158052        0.7724679844       -0.0712834283
 C          4.1251712014       -0.4317982667       -1.4603634137
 H          3.7424438972        0.0618481294       -2.3561229923
 H          4.2906927037       -1.4829218839       -1.6930606036
 H          5.5535358830       -0.8047791158        1.6192782684
 H          5.8493437442       -2.4928172478        2.0020730498
 H          3.5844698011       -2.5829183344        1.9865686321
 H          3.8669611881       -2.9344491219        0.2823933028
 O          2.1326254839       -0.8346242664        1.7028461046
 C          1.1644074847        0.1493809205        1.6015334245
 O          0.3813875845        0.2039537441        2.5729915627
 H         -0.8320248624       -0.4076962450       -0.2690257399
 C         -1.2689529177        0.3455095563       -0.9063609846
 C         -0.8908805861        1.6723900389       -0.7564223348
 C         -1.4418885985        2.6177165238       -1.6122657582
 C         -2.3371731912        2.2312944678       -2.5951097282
 C         -2.7242733247        0.9099785105       -2.7283725934
 C         -2.1827978432       -0.0419563134       -1.8721762294
 N         -2.5487721178       -1.3944924452       -1.9537576883
 S         -2.6984389231       -2.2770856916       -0.5397886204
 O         -1.3989535462       -2.6355372993       -0.0282170875
 O         -3.5566147095       -3.3852720024       -0.9036977596
 C         -3.5642502076       -1.1910940748        0.5807642457
 C         -4.8881137689       -0.9190079024        0.2901636077
 C         -5.5897904207       -0.0423157837        1.0999563806
 C         -4.9569273223        0.5514081429        2.1819870249
 C         -3.6311141341        0.2639574582        2.4636046695
 C         -2.9232012589       -0.6156238975        1.6582052781
 H         -1.8881531437       -0.8445910583        1.8611497216
 H         -3.1295958751        0.7201466919        3.3024745765
 H         -5.4990592267        1.2395546893        2.8111563993
 H         -6.6229504467        0.1779094942        0.8851799774
 H         -5.3470585837       -1.4096228850       -0.5527584670
 H         -3.2903441969       -1.5984090272       -2.6074598805
 H         -3.4287786419        0.6138437030       -3.4901313820
 H         -2.7489660919        2.9734126151       -3.2618566192
 H         -1.1648770797        3.6545285832       -1.5152577152
 C          0.0638290334        2.0128829309        0.3633844242
 H         -0.5024241659        1.9547388983        1.3055773247
 C          0.6696997253        3.3956930734        0.2435889866
 C         -0.0455309523        4.5851555231        0.8083608139
 C          1.1886832440        4.0647650090        1.4797983672
 H          2.0991260598        4.6409657997        1.4112278708
 H          1.0796447396        3.5323195851        2.4138565874
 H          0.0195427342        5.5244346802        0.2801544383
 H         -0.9942658414        4.4146836680        1.2942683939
 H          1.2383268349        3.5222648777       -0.6701274923
 O          2.0069698741        1.4137280668       -1.6823872572
