  62
        -98.94067082
 C          1.9462228229        0.8493884528        0.7186471276
 C          1.8765781197        0.1886599939       -0.5333980653
 C          2.1099788081       -1.2611449449       -0.5033646995
 C          2.2854038502       -1.8907339875        0.6709239539
 C          2.4959041668       -3.3682245035        0.8644995613
 C          3.9496241757       -3.8244610110        0.6768168730
 C          4.4503905776       -3.8280739724       -0.7681133714
 H          5.3973293943       -4.3712612576       -0.7767817101
 H          3.7493321297       -4.3834720791       -1.3917180953
 C          4.6769784504       -2.4316074741       -1.3637901729
 H          4.7248118697       -1.6955960742       -0.5579298706
 H          5.6400194788       -2.4065587285       -1.8783586553
 C          3.6134391365       -1.9923531992       -2.3703116801
 H          3.6426273036       -2.6469228821       -3.2440452001
 H          3.8515808147       -0.9782063670       -2.7007956770
 C          2.1837165009       -1.9855147135       -1.8131283661
 H          1.5363956495       -1.4561317189       -2.5167300715
 H          1.8145626838       -3.0051097601       -1.7030111875
 H          4.5954974650       -3.1873642681        1.2854380937
 H          4.0231163759       -4.8420430341        1.0673066785
 H          2.1924202417       -3.5917864094        1.8897709363
 H          1.8459314850       -3.9194907327        0.1840141961
 O          2.2701659804       -1.2319169651        1.8617186242
 C          2.1046095026        0.1426856802        1.9120035634
 O          2.1134464852        0.6138458078        3.0688750438
 H         -0.6653582227        1.1929186191        1.0807635071
 C         -0.6899643659        1.9607234851        0.3191752233
 C          0.4596785640        2.6942487744        0.0511022869
 C          0.4074028950        3.6793348018       -0.9250899886
 C         -0.7630787995        3.8977470950       -1.6316609491
 C         -1.8910889809        3.1356731834       -1.3927433447
 C         -1.8512196248        2.1549362338       -0.4069079746
 N         -2.9838352530        1.3705054814       -0.1212424575
 S         -2.7462907669       -0.2216148532        0.3880199787
 O         -2.4728270611       -0.2174826471        1.8049070700
 O         -1.7788951689       -0.8911201030       -0.4518779805
 C         -4.3779925528       -0.8834570135        0.1016214629
 C         -4.6287470906       -1.5985295060       -1.0540823675
 C         -5.9090516361       -2.0793445459       -1.2807024220
 C         -6.9120229665       -1.8349082168       -0.3547804837
 C         -6.6451457045       -1.1157552077        0.8009489968
 C         -5.3670511564       -0.6336439605        1.0342817556
 H         -5.1083920784       -0.0786639217        1.9209258018
 H         -7.4264880359       -0.9298489271        1.5199766581
 H         -7.9073015121       -2.2098057309       -0.5336234930
 H         -6.1181037350       -2.6414851268       -2.1765501573
 H         -3.8149107416       -1.7694581191       -1.7406192065
 H         -3.6864371917        1.4228709796       -0.8466492408
 H         -2.7934593981        3.2906666574       -1.9644575845
 H         -0.7896958182        4.6599617065       -2.3957181767
 H          1.2888812735        4.2546931228       -1.1555195268
 C          1.6953746925        2.3436172992        0.8438463550
 H          1.4623922654        2.5010510132        1.9109096588
 C          2.8981558065        3.2193905408        0.5279146989
 C          4.2936979817        2.6910611324        0.6715711611
 C          3.7483742444        3.0065895252       -0.6870248234
 H          4.1319667086        3.8759517625       -1.2008970033
 H          3.4843070793        2.1912669909       -1.3409485577
 H          5.0473244620        3.3405548102        1.0910791729
 H          4.4066688028        1.6531874913        0.9508694681
 H          2.7422917872        4.2474335005        0.8405115752
 O          1.6411308829        0.7661896287       -1.6259196326
