  62
        -98.93661174
 C         -2.3415572290       -0.5785815451        0.3844002127
 C         -2.1552467961        0.4343248664        1.3701823364
 C         -2.2159266356        1.8264823689        0.9236419808
 C         -2.4636051264        2.0960985709       -0.3694416104
 C         -2.5495025830        3.4618750140       -0.9929435913
 C         -1.1801997016        4.0401829274       -1.3773439592
 C         -0.3280987043        4.5233143179       -0.2026537665
 H         -0.9224425700        5.1824748792        0.4317099720
 H          0.4856710457        5.1180550016       -0.6224728862
 C          0.2758645343        3.3916583457        0.6409825228
 H          1.3301391602        3.6060365920        0.8347363188
 H          0.2458301720        2.4618469126        0.0670808254
 C         -0.3998321014        3.1790958708        1.9964416093
 H         -0.2403561227        4.0585294612        2.6246822543
 H          0.0752323671        2.3244559395        2.4844646313
 C         -1.9068724349        2.9021123132        1.9208317935
 H         -2.4459272214        3.8156151854        1.6708453841
 H         -2.2407674526        2.5531729699        2.9011516825
 H         -1.3570491389        4.8855027979       -2.0470576791
 H         -0.6252712062        3.2804171836       -1.9348775465
 H         -3.0616726112        4.1468189702       -0.3161997582
 H         -3.1469494576        3.3551486383       -1.9011173759
 O         -2.6811745606        1.1142743142       -1.2764524116
 C         -2.5469765662       -0.2304101953       -0.9529195824
 O         -2.6563257280       -0.9684436530       -1.9537372211
 O         -1.9341390567        0.1784399858        2.5849933749
 C         -2.1058277266       -1.9883974830        0.9114542176
 C         -0.6554315670       -2.3616851329        0.6913575946
 C          0.1173618401       -2.8864904396        1.7219064952
 C          1.4761474281       -3.0920432815        1.5567527127
 C          2.1012123750       -2.7326973524        0.3747007984
 C          1.3331720577       -2.2249755894       -0.6626596438
 C         -0.0365803344       -2.0844426552       -0.5182298080
 H         -0.6108642333       -1.6890360985       -1.3412996088
 N          1.9887777447       -1.7213352722       -1.8273825626
 S          2.1253230393       -0.0385815649       -1.6881562817
 O          0.8415687404        0.5907305572       -1.4626716930
 O          2.8347825997        0.4019318548       -2.8700025785
 C          3.1499278054        0.1309384362       -0.2461169218
 C          2.5498445495        0.3173404273        0.9836029912
 C          3.3502633140        0.4027238521        2.1114850842
 C          4.7275319409        0.2962720559        1.9902137720
 C          5.3143235706        0.1081506490        0.7476780338
 C          4.5195746918        0.0216159700       -0.3842651030
 H          4.9272777467       -0.1214470682       -1.3713289693
 H          6.3855775642        0.0265390811        0.6584631778
 H          5.3458551687        0.3607690511        2.8715497328
 H          2.8915572271        0.5459224139        3.0767655648
 H          1.4740391879        0.3903918381        1.0378816183
 H          1.4676598337       -1.9135227185       -2.6739594610
 H          3.1672968172       -2.8289483766        0.2497966991
 H          2.0602200485       -3.4978885408        2.3678239785
 H         -0.3519336069       -3.1041381522        2.6700545562
 H         -2.2269796032       -1.8619207966        1.9995101803
 C         -3.0315578246       -3.1403705558        0.5426344872
 C         -4.3794921566       -2.9639457644       -0.0827700746
 C         -3.2841216206       -3.6521434075       -0.8410762315
 H         -3.3453631886       -4.7216139334       -0.9810430415
 H         -2.8536829786       -3.1157602206       -1.6697438061
 H         -5.2069080633       -3.5467076495        0.2941535221
 H         -4.6513975591       -1.9711998837       -0.4096077202
 H         -2.9732335322       -3.9149019956        1.3031235444
