  62
        -98.94283728
 C          2.7080867605        1.2205597615        0.1763874539
 C          2.6246521866        0.3019547757       -0.8981279517
 C          3.6689685845       -0.7302287150       -0.9335721301
 C          4.6388459567       -0.7373594469       -0.0017075273
 C          5.7782699118       -1.7161962517        0.0840403436
 C          5.4198804583       -3.0259933635        0.7998103159
 C          4.5128491155       -3.9720816242        0.0117556692
 H          4.9352719009       -4.1360854922       -0.9800640849
 H          4.5224139225       -4.9316842879        0.5324659528
 C          3.0590849397       -3.4957979356       -0.1176161964
 H          2.8611877615       -2.7197938632        0.6256094190
 H          2.3831093010       -4.3255063865        0.1005500493
 C          2.6876773172       -2.9609050007       -1.5007909815
 H          2.7485480995       -3.7677535852       -2.2345018487
 H          1.6522411891       -2.6123073049       -1.4659712387
 C          3.5627941309       -1.7961353916       -1.9819077812
 H          4.5520869503       -2.1575357695       -2.2613311489
 H          3.0898841495       -1.3518308489       -2.8610994292
 H          4.9503309427       -2.7837647074        1.7560316304
 H          6.3560696207       -3.5474764866        1.0120587799
 H          6.1498130406       -1.9362874129       -0.9171151785
 H          6.5714646418       -1.2214140962        0.6486182238
 O          4.7031915601        0.1865652101        0.9942099518
 C          3.7282979090        1.1606583159        1.1273831108
 O          3.8812226440        1.9080173955        2.1148394361
 H         -0.5733253918        1.9622757896       -1.2455825098
 C         -0.6872677395        1.5117136937       -0.2725261417
 C          0.3355317273        1.6056651507        0.6563181064
 C          0.1636550071        1.0037249234        1.9006626395
 C         -0.9999149522        0.3224427729        2.2003865882
 C         -2.0132501196        0.2151449510        1.2627296567
 C         -1.8524345366        0.8113242951        0.0200568679
 N         -2.8557389597        0.6807167867       -0.9495958454
 S         -4.4677399548        0.8088946225       -0.5283498709
 O         -5.1528043305        1.1345730314       -1.7601769246
 O         -4.6603350271        1.7262952090        0.5710688918
 C         -4.9195487578       -0.8408922345       -0.0320982066
 C         -5.6255070302       -1.0345563552        1.1390854281
 C         -5.9844658713       -2.3237431540        1.5008358377
 C         -5.6340122575       -3.3910217849        0.6884302124
 C         -4.9270383618       -3.1795431327       -0.4859582837
 C         -4.5665297771       -1.8931664372       -0.8540178466
 H         -4.0160344430       -1.6898806868       -1.7575540840
 H         -4.6544125436       -4.0119877662       -1.1146159743
 H         -5.9124574307       -4.3936920951        0.9721770430
 H         -6.5338653525       -2.4900189132        2.4135151241
 H         -5.8693783221       -0.1757637202        1.7440637218
 H         -2.6502383585        1.1300007723       -1.8290461591
 H         -2.9211745899       -0.3197796191        1.4885866224
 H         -1.1197272280       -0.1361515613        3.1702865112
 H          0.9624309991        1.0751549805        2.6267117559
 C          1.6470217612        2.2931900951        0.3626336118
 H          1.9418054593        2.8590709898        1.2568623957
 C          1.6023968865        3.2390355658       -0.8183361611
 C          0.9184716999        4.5646310619       -0.6756880450
 C          2.4123614386        4.4981308651       -0.7752147687
 H          2.8846142454        4.8380577086       -1.6847367661
 H          2.9944861670        4.6868527045        0.1150489336
 H          0.4832261221        4.7998679225        0.2840059242
 H          0.3643041325        4.9548807731       -1.5160057786
 H          1.5328934773        2.7291498981       -1.7714783576
 O          1.7343424323        0.3351378401       -1.7867423630
