  62
        -98.93665526
 C         -2.4336618030       -0.3399312211        0.5077905783
 C         -2.1888997296        0.4120171701       -0.6635244958
 C         -1.7969195995        1.8207885599       -0.4755659552
 C         -1.6760074202        2.3033745349        0.7737114834
 C         -1.2199798102        3.6685948704        1.2250122010
 C         -1.7402188449        4.8832428995        0.4420357977
 C         -0.6712047961        5.5515775779       -0.4244416483
 H          0.2722910502        5.5461806589        0.1252132475
 H         -0.9523070450        6.5952805207       -0.5821413129
 C         -0.4568695208        4.9194968842       -1.7983312185
 H          0.4141583887        5.3995935833       -2.2502527743
 H         -1.3170349378        5.1393125828       -2.4345413803
 C         -0.2362449900        3.4056074619       -1.7995207267
 H          0.4203876809        3.1005552064       -0.9841667196
 H          0.2754658308        3.1418964807       -2.7277455236
 C         -1.5397527770        2.5948938276       -1.7388916697
 H         -1.5353475623        1.8362019759       -2.5274993189
 H         -2.3960331788        3.2445363281       -1.9416752816
 H         -2.0906348559        5.6179264267        1.1689056057
 H         -2.5969334679        4.5945340959       -0.1641749509
 H         -1.5325907107        3.7388980771        2.2698101936
 H         -0.1260905609        3.6670965552        1.2286972646
 O         -1.9347047845        1.5423449025        1.8778231393
 C         -2.2912660825        0.2111745190        1.7781534809
 O         -2.4614383085       -0.3633737062        2.8748345681
 H         -0.1547949167       -1.4046470470        0.9214637082
 C         -0.2742902643       -2.1105275010        0.1109865436
 C         -1.5507146814       -2.4835651321       -0.2917997076
 C         -1.6779487525       -3.4104323393       -1.3173726818
 C         -0.5513150312       -3.9135147923       -1.9462765902
 C          0.7143528584       -3.4943898185       -1.5811795900
 C          0.8520369404       -2.5837750989       -0.5385066181
 N          2.1199717987       -2.1435903806       -0.1202348821
 S          2.2602167455       -0.5742034493        0.4902350147
 O          1.9236738155       -0.5932465225        1.8934951848
 O          1.5352354758        0.3658027233       -0.3327347703
 C          4.0177489991       -0.3292527962        0.3059561737
 C          4.4941488143        0.4137697383       -0.7572960970
 C          5.8637693924        0.5678288794       -0.9071258031
 C          6.7284633832       -0.0236713905        0.0013485511
 C          6.2352586526       -0.7663633562        1.0641438679
 C          4.8672908595       -0.9226790426        1.2208313864
 H          4.4361568178       -1.4815145495        2.0350247695
 H          6.9101383213       -1.2226182160        1.7701521468
 H          7.7935146979        0.0970926185       -0.1179878958
 H          6.2493710045        1.1475131524       -1.7301806107
 H          3.7823832276        0.8587316205       -1.4342378301
 H          2.8482429481       -2.3476202782       -0.7912110740
 H          1.5884605074       -3.8645061710       -2.0948636236
 H         -0.6631210040       -4.6269274350       -2.7486645440
 H         -2.6580844347       -3.7250570542       -1.6364002472
 C         -2.7207807742       -1.8276209032        0.4034807450
 H         -2.7651143662       -2.2028412385        1.4369722053
 C         -4.0517214464       -2.0819620745       -0.2709684602
 C         -4.8400506748       -3.3135030370        0.0567042111
 C         -5.3056427638       -1.9745437946        0.5418502874
 H         -6.1788943456       -1.5330211017        0.0859040235
 H         -5.1952616996       -1.7403268516        1.5909618803
 H         -4.4221461914       -3.9959989325        0.7812678531
 H         -5.3996058604       -3.7926837818       -0.7323329149
 H         -4.0792471914       -1.7066145818       -1.2872276180
 O         -2.2859507508       -0.0726557420       -1.8225372990
