  62
        -98.94520698
 C         -2.0764898086       -1.4570229528       -0.0054315196
 C         -1.8947687476       -0.4714597201       -1.0057342154
 C         -2.7813343906        0.6994281706       -0.9212342818
 C         -3.6810325014        0.7821574421        0.0750147220
 C         -4.5979661644        1.9461120317        0.3115038437
 C         -3.9553541389        2.9802060250        1.2466429927
 C         -2.5338732801        3.3782566673        0.8483485359
 H         -1.8742055518        2.5153551800        0.9651730278
 H         -2.2027442677        4.1375990749        1.5598487530
 C         -2.4049850415        3.9225600109       -0.5810594545
 H         -1.7772116081        4.8155951375       -0.5632084333
 H         -3.3848791681        4.2258979248       -0.9515213539
 C         -1.7674121894        2.9484558594       -1.5732536440
 H         -0.8312412739        2.5644198862       -1.1609717071
 H         -1.5251002694        3.5014241750       -2.4845930339
 C         -2.6351696599        1.7526894058       -1.9835663423
 H         -2.1435065592        1.2605201259       -2.8277610947
 H         -3.6152597477        2.1021789273       -2.3147572297
 H         -3.9241183842        2.5616359579        2.2552293815
 H         -4.5917503077        3.8668734417        1.2670793054
 H         -5.5145333949        1.5732741886        0.7718456702
 H         -4.8451907581        2.4073474150       -0.6427341753
 O         -3.8245314841       -0.1810164907        1.0202729265
 C         -3.0320229877       -1.3139784776        1.0060818253
 O         -3.2712039346       -2.1158765973        1.9309090701
 O         -1.0479805416       -0.5474170594       -1.9354926410
 C         -1.2433593941       -2.7295810423        0.0471722840
 C          0.1464357939       -2.4032750479        0.5390326913
 C          0.4603640842       -2.5615932861        1.8849575633
 C          1.7208953689       -2.2426380320        2.3570640145
 C          2.6914960159       -1.7532000643        1.5005761382
 C          2.3801464175       -1.5682029206        0.1593876000
 C          1.1181039110       -1.9022652235       -0.3148186716
 H          0.8794227311       -1.7408733318       -1.3543099553
 N          3.3487561365       -1.0696650408       -0.7303650488
 S          4.2435050666        0.2875333942       -0.3460221724
 O          4.9318617164        0.6397422149       -1.5662255649
 O          5.0757194476       -0.0003945714        0.7953937504
 C          3.0675295724        1.5615658158        0.0715966125
 C          2.5746897510        1.6379069649        1.3590178086
 C          1.6449205997        2.6200840253        1.6618147621
 C          1.2330335652        3.5090673865        0.6815201718
 C          1.7390407998        3.4204260622       -0.6064522044
 C          2.6591523532        2.4331323163       -0.9184289229
 H          3.0806109600        2.3324128432       -1.9056362844
 H          1.4179384767        4.1144466593       -1.3665558041
 H          0.5128572375        4.2747312189        0.9222365309
 H          1.2469888083        2.6891546152        2.6616825805
 H          2.9285598635        0.9417477115        2.1011592499
 H          3.0156137476       -1.0039980760       -1.6815426248
 H          3.6808132930       -1.5081755126        1.8519585635
 H          1.9533904094       -2.3808547700        3.4022974889
 H         -0.2989240301       -2.9307615904        2.5599056970
 H         -1.7234255170       -3.3644552933        0.8033988486
 C         -1.2407557606       -3.4765779602       -1.2715442847
 C         -0.8031195167       -4.9091371998       -1.2923564350
 C         -2.2467975316       -4.5629821758       -1.4972220592
 H         -2.6706037222       -4.6756954719       -2.4839496354
 H         -2.9418269734       -4.7760127044       -0.6979041437
 H         -0.2332749412       -5.2630286495       -2.1378225383
 H         -0.5180692037       -5.3567410712       -0.3521061917
 H         -0.9868071023       -2.8588336201       -2.1226419597
