  62
        -98.94341545
 C         -1.9675607794       -0.8614343559        0.0374265346
 C         -2.2429260229        0.1009959576        1.0358933907
 C         -2.4514107933        1.4757765111        0.5659768088
 C         -2.3318181295        1.7458381308       -0.7469490571
 C         -2.5482362633        3.0955379052       -1.3669608612
 C         -4.0082575226        3.2836935224       -1.8025326745
 C         -5.0261603927        2.9190871711       -0.7219983513
 H         -6.0193644043        3.1171813112       -1.1304322788
 H         -4.9661955555        1.8463412250       -0.5249800712
 C         -4.8531467283        3.6857360547        0.5965113507
 H         -4.2410022749        4.5730356941        0.4316598794
 H         -5.8338140471        4.0253528604        0.9359826711
 C         -4.2499174361        2.8608466319        1.7349061856
 H         -4.8034199661        1.9246845304        1.8428511897
 H         -4.3718864829        3.4227167857        2.6647353971
 C         -2.7593836298        2.5239445611        1.5982317688
 H         -2.1896166441        3.4350225606        1.4017852311
 H         -2.4204458110        2.1102223640        2.5530254062
 H         -4.1473791255        4.3244175616       -2.1004980409
 H         -4.1923398268        2.6517153586       -2.6741892648
 H         -2.2673619719        3.8651072590       -0.6503483813
 H         -1.9001774825        3.1757660193       -2.2414013532
 O         -2.0445532467        0.7993643958       -1.6760318480
 C         -1.8469091402       -0.5229188075       -1.3103465482
 O         -1.5827351877       -1.2850897994       -2.2602272928
 H          0.4888776409       -0.7600483383        0.3839804637
 C          0.7113908352       -1.7759307172        0.0908005741
 C         -0.3079550351       -2.7187206552        0.0570114769
 C          0.0085220443       -4.0222483747       -0.3049995837
 C          1.3100761107       -4.3608563723       -0.6336139275
 C          2.3169837727       -3.4144291086       -0.6161318784
 C          2.0093621348       -2.1043225950       -0.2611768026
 N          2.9999639369       -1.1099600002       -0.2952670668
 S          2.7620087009        0.3938520162        0.4125967154
 O          2.4888480588        0.2567475954        1.8275794489
 O          1.7943993053        1.1319720298       -0.3610696016
 C          4.3846068118        1.0936261924        0.1744603152
 C          4.7087761788        1.5990847532       -1.0704948254
 C          5.9764647617        2.1209262423       -1.2728862238
 C          6.8944546222        2.1285673031       -0.2329295406
 C          6.5543838477        1.6201447852        1.0115088287
 C          5.2882558877        1.0956368688        1.2200507528
 H          4.9752146596        0.6978937672        2.1719422474
 H          7.2685595942        1.6306430739        1.8189398452
 H          7.8799752788        2.5363075157       -0.3930716164
 H          6.2427149748        2.5196328188       -2.2384798141
 H          3.9585314043        1.5800079868       -1.8440429772
 H          3.9393825523       -1.4591649886       -0.1721323478
 H          3.3283085009       -3.6777656527       -0.8842104800
 H          1.5424119683       -5.3778553035       -0.9109312490
 H         -0.7649317908       -4.7724244329       -0.3312120885
 C         -1.7037729053       -2.2960091292        0.4502531520
 H         -1.7612581505       -2.2987519709        1.5503656684
 C         -2.7782487510       -3.2149953019       -0.0963169320
 C         -3.2336319146       -4.4084425193        0.6878059268
 C         -4.1278868194       -3.2138656640        0.5550763717
 H         -5.0036863770       -3.2874186184       -0.0718788778
 H         -4.2589897149       -2.5735340411        1.4154991313
 H         -3.4995284569       -5.3065029779        0.1508431182
 H         -2.7685425279       -4.5851352377        1.6459899004
 H         -2.7436424632       -3.2915716680       -1.1773199430
 O         -2.3096613790       -0.1786715984        2.2657728024
