  62
        -98.94281766
 C          2.6993953720        1.2094319874        0.2194065724
 C          2.6820831244        0.3298494221       -0.8903393151
 C          3.7361375198       -0.6932540564       -0.9074567597
 C          4.6505463487       -0.7343867570        0.0779089324
 C          5.7938423523       -1.7062577793        0.1870151116
 C          5.4098146475       -3.0507905073        0.8201465342
 C          4.5638799780       -3.9687949732       -0.0632183693
 H          5.0467578253       -4.0826498158       -1.0342838229
 H          4.5548267667       -4.9512195495        0.4130219457
 C          3.1143615471       -3.5019345161       -0.2578367612
 H          2.8620899443       -2.7639115031        0.5073296537
 H          2.4376551051       -4.3481115410       -0.1198334813
 C          2.8190963408       -2.9064956589       -1.6345627898
 H          1.7785947601       -2.5717322254       -1.6465469704
 H          2.9351136418       -3.6770356460       -2.4000290697
 C          3.7049720864       -1.7107953581       -2.0076876316
 H          4.7138204319       -2.0480396414       -2.2442306986
 H          3.2789608945       -1.2311236801       -2.8923146463
 H          4.8807577811       -2.8573949326        1.7561670287
 H          6.3381728499       -3.5720612868        1.0647206045
 H          6.5467750692       -1.2306085694        0.8191077588
 H          6.2258923016       -1.8769321380       -0.7993797930
 O          4.6474343207        0.1458608712        1.1142636574
 C          3.6632987286        1.1124346877        1.2260750954
 O          3.7567277037        1.8218841562        2.2479754112
 O          1.8432920716        0.3869138633       -1.8271155327
 C          1.6365962457        2.2832564052        0.3929212236
 C          0.3207880934        1.6037644017        0.6864560067
 C          0.0526505123        1.1832983054        1.9864223137
 C         -1.1240517889        0.5234244006        2.2860382364
 C         -2.0537174058        0.2585492874        1.2950001670
 C         -1.7939246618        0.6692001734       -0.0050557948
 C         -0.6172263833        1.3468783771       -0.3007039869
 H         -0.4211602102        1.6485277380       -1.3173613409
 N         -2.7165372542        0.3774433240       -1.0219020420
 S         -4.3423371566        0.6863296997       -0.7677982918
 O         -4.9122708556        0.8313746025       -2.0895575332
 O         -4.5368009178        1.7942972593        0.1388416184
 C         -4.9574882884       -0.8158180842       -0.0351651570
 C         -5.6842095375       -0.7614322660        1.1379984006
 C         -6.1671263484       -1.9410632850        1.6830447395
 C         -5.9170187909       -3.1476943924        1.0478455851
 C         -5.1870692508       -3.1851350325       -0.1309830055
 C         -4.7028496749       -2.0094115612       -0.6817011841
 H         -4.1334158407       -1.9966976953       -1.5961530070
 H         -4.9936123973       -4.1254734230       -0.6216816892
 H         -6.2928505181       -4.0646004049        1.4737471655
 H         -6.7349280110       -1.9138759023        2.5991964878
 H         -5.8483918743        0.1988878074        1.6003662606
 H         -2.4194510577        0.6695454578       -1.9411992023
 H         -2.9716324978       -0.2592863146        1.5207344820
 H         -1.3194783812        0.2077005713        3.2996589420
 H          0.7862120456        1.3765488308        2.7572589653
 H          1.9279956606        2.8526938821        1.2855895991
 C          1.5877708708        3.2283375895       -0.7894975292
 C          0.8455161731        4.5235049886       -0.6600611109
 C          2.3426901202        4.5202578769       -0.7254435337
 H          2.8208484108        4.8823587497       -1.6232513070
 H          2.8945340662        4.7329315437        0.1785675760
 H          0.2933896429        4.8910681354       -1.5117816554
 H          0.3785460716        4.7370284125        0.2897796372
 H          1.5603908163        2.7217103040       -1.7459590487
