  62
        -98.94530553
 C         -2.4834398470       -1.1604448939       -0.0252059214
 C         -3.1261620787       -0.2992360795        0.8954052081
 C         -3.6977690788        0.9325245682        0.3368805757
 C         -3.5714357899        1.1766892378       -0.9804700276
 C         -4.0465854601        2.4218666562       -1.6704692075
 C         -2.9405953038        3.4857411310       -1.7128473678
 C         -2.2693385667        3.7341037524       -0.3617170623
 H         -1.7155677531        2.8379224822       -0.0687479318
 H         -1.5294891342        4.5249372003       -0.5059277158
 C         -3.2345972780        4.1324127314        0.7640176403
 H         -4.1765809679        4.4783492649        0.3372091070
 H         -2.8002614650        4.9691522511        1.3151133051
 C         -3.5157781930        3.0261382009        1.7825966082
 H         -2.5692795170        2.6134967835        2.1423621525
 H         -4.0230722796        3.4753244690        2.6405016309
 C         -4.3913504374        1.8679224108        1.2871821310
 H         -4.6651593991        1.2636576656        2.1570092852
 H         -5.3056793345        2.2632932097        0.8408927059
 H         -3.3707171984        4.4179367220       -2.0834979966
 H         -2.1716692774        3.1604231894       -2.4178263369
 H         -4.3273721404        2.1629344889       -2.6926170100
 H         -4.9197949782        2.8103580759       -1.1501278599
 O         -2.9429678187        0.3294102761       -1.8337631372
 C         -2.3620361518       -0.8460947523       -1.3793749916
 O         -1.7903989333       -1.5092899778       -2.2640883608
 H         -0.3310519319       -0.4859056303        1.4716140410
 C          0.2760422822       -1.1815720442        0.9040430695
 C         -0.3327691804       -2.2908441128        0.3276706838
 C          0.4547755633       -3.1744996656       -0.3964434611
 C          1.8103591688       -2.9368030372       -0.5517610234
 C          2.4076088779       -1.8240434684        0.0111024786
 C          1.6296707533       -0.9389620940        0.7467316257
 N          2.2305533261        0.2035896538        1.3197261143
 S          2.8534438579        1.3156579464        0.2172428809
 O          2.8518026476        2.5843845767        0.9135706710
 O          2.1388168173        1.2707139091       -1.0385559885
 C          4.5343843815        0.7769951349       -0.0091952339
 C          4.9720739686        0.3941949593       -1.2616553463
 C          6.2853187185       -0.0239540060       -1.4125177330
 C          7.1313566660       -0.0520958545       -0.3143310536
 C          6.6760008034        0.3372971256        0.9367729593
 C          5.3651842504        0.7579673198        1.0942521789
 H          4.9714203196        1.0740867080        2.0456713994
 H          7.3369753406        0.3139418365        1.7881038347
 H          8.1518979261       -0.3796033964       -0.4346099444
 H          6.6407699403       -0.3268207408       -2.3843030078
 H          4.2748195334        0.4264342967       -2.0837793377
 H          1.6162657184        0.6860136154        1.9617079053
 H          3.4610528490       -1.6332916922       -0.1143185126
 H          2.4093211185       -3.6276468023       -1.1251499654
 H          0.0052802794       -4.0403886818       -0.8534633027
 C         -1.8262025940       -2.4281476757        0.4954765603
 H         -2.0487871264       -2.4499204988        1.5724827407
 C         -2.4118260322       -3.6642460777       -0.1497958010
 C         -2.3163916106       -4.9862867149        0.5498073798
 C         -3.6365353601       -4.2847891475        0.4502290536
 H         -4.3876456878       -4.6861944787       -0.2132439403
 H         -4.0418955387       -3.8251202793        1.3398639062
 H         -1.8250526770       -5.0073478402        1.5106815569
 H         -2.1626256314       -5.8741175667       -0.0443330894
 H         -2.3388528673       -3.6477032013       -1.2308869472
 O         -3.2094459816       -0.5447446431        2.1302512498
