  62
        -98.94370631
 C          1.2855151899        1.4172269197        0.5860334400
 C          2.1010216897        1.0394399492       -0.5093618600
 C          3.1844908597        0.0919710893       -0.2059907799
 C          3.3239980200       -0.3807174101        1.0448654603
 C          4.3455937101       -1.3931005399        1.4729714205
 C          3.7898218001       -2.8203108299        1.3708101414
 C          3.1204839298       -3.1342936306        0.0321343717
 H          2.8086524098       -4.1810105305        0.0649211222
 H          2.2061128897       -2.5419618706       -0.0624724184
 C          4.0133385195       -2.9055508111       -1.1957089287
 H          5.0604641195       -2.8777057510       -0.8910037889
 H          3.8945146293       -3.7535558415       -1.8735291582
 C          3.6840535093       -1.6455691715       -1.9984980392
 H          2.6118634592       -1.6197445316       -2.2120600489
 H          4.2081750190       -1.7063332620       -2.9561878593
 C          4.0773286594       -0.3155050812       -1.3435435599
 H          5.1203615995       -0.3558926711       -1.0231398101
 H          3.9779110193        0.4683712884       -2.1001058302
 H          4.6082876501       -3.5221828199        1.5428846315
 H          3.0475181503       -2.9622550096        2.1599906616
 H          5.2329119800       -1.2921303502        0.8510143503
 H          4.6152326104       -1.1926349294        2.5114957004
 O          2.5044964503       -0.0198209096        2.0650977304
 C          1.4481685102        0.8509203403        1.8521555402
 O          0.7308277605        1.0388399008        2.8562952203
 H         -0.6019400702       -0.1695263906       -0.0619887788
 C         -1.0255587704        0.4838595791       -0.8093669490
 C         -0.7431935504        1.8425862791       -0.7620776097
 C         -1.2609255806        2.6596223586       -1.7577954000
 C         -2.0322809909        2.1172354082       -2.7720884595
 C         -2.3208139709        0.7650816681       -2.8068538388
 C         -1.8042003107       -0.0611255414       -1.8149305586
 N         -2.0591719407       -1.4410184714       -1.8014430978
 S         -2.2123931303       -2.2271449507       -0.3347835574
 O         -0.9195064302       -2.4283975204        0.2705862623
 O         -2.9518628204       -3.4307820008       -0.6514850567
 C         -3.2247483301       -1.1427779302        0.6576358023
 C         -4.5309773402       -0.9493523204        0.2499202125
 C         -5.3368121900       -0.0776172701        0.9626567123
 C         -4.8239974597        0.5891031105        2.0654238719
 C         -3.5142861396        0.3793319606        2.4667366217
 C         -2.7039901798       -0.4950113797        1.7587231319
 H         -1.6793161097       -0.6694619896        2.0498675817
 H         -3.1073437894        0.8945293310        3.3225198813
 H         -5.4474194196        1.2743708007        2.6176497217
 H         -6.3576045901        0.0828866298        0.6557335325
 H         -4.8961567504       -1.4929387608       -0.6062057871
 H         -2.7288304808       -1.7641504817       -2.4834421775
 H         -2.9243472511        0.3481204378       -3.5981971885
 H         -2.4199153211        2.7606167878       -3.5472720797
 H         -1.0443976206        3.7151040786       -1.7550470805
 C          0.0846796299        2.3296504996        0.4031886398
 H         -0.5205948799        2.1760560201        1.3131007001
 C          0.4075531299        3.8155209096        0.3504471291
 C          1.6973586300        4.3498350699        0.8965647185
 C          1.4375286897        4.3823520992       -0.5781151915
 H          1.2387508096        5.3384884590       -1.0401120419
 H          1.9691893195        3.6899408389       -1.2105319413
 H          1.6752675402        5.2783295301        1.4474812481
 H          2.4155973601        3.6353663100        1.2730537387
 H         -0.4720540201        4.4261521597        0.5293816590
 O          1.9424498094        1.4603120486       -1.6840884802
