  62
        -98.94063860
 C         -1.5897879784       -0.5217873982        0.7881493890
 C         -2.9458992701       -0.6433825301        1.1897290729
 C         -3.9382141573       -0.7288509663        0.1132592129
 C         -3.5359291231       -0.6743094871       -1.1689168625
 C         -4.4226965205       -0.7700989198       -2.3807134680
 C         -5.0712860591        0.5603720006       -2.7864872074
 C         -6.1906051272        1.0465081775       -1.8648377388
 H         -6.6973448697        1.8644545724       -2.3808739526
 H         -6.9195380134        0.2471414859       -1.7277090740
 C         -5.7106016816        1.5491307879       -0.4960140318
 H         -4.6371456100        1.7491863743       -0.5376545763
 H         -6.2023844496        2.4963464555       -0.2630416705
 C         -5.9928472393        0.5947052114        0.6643978808
 H         -7.0717918109        0.4917243090        0.7995772500
 H         -5.5795257300        1.0326939564        1.5764827878
 C         -5.3860827983       -0.8041255617        0.4939157602
 H         -5.9462366922       -1.3688473622       -0.2510563018
 H         -5.4522096613       -1.3249244178        1.4523117127
 H         -5.4864814490        0.4280318149       -3.7883463673
 H         -4.2920982947        1.3239199503       -2.8487544460
 H         -3.7891558209       -1.1083277601       -3.2036051227
 H         -5.1984777228       -1.5169259335       -2.2089900495
 O         -2.2299623277       -0.5401554338       -1.5165505314
 C         -1.2260540282       -0.4375326948       -0.5572421558
 O         -0.0898392088       -0.2919013288       -1.0416870123
 O         -3.3105580663       -0.6805027377        2.3948535548
 C         -0.5495626088       -0.4037200724        1.8885183672
 C          0.2913255132        0.8299851562        1.6826969465
 C         -0.2671587203        2.0699612704        1.9822633325
 C          0.4631140215        3.2320203050        1.8289125380
 C          1.7654951391        3.1776757368        1.3651696070
 C          2.3285147447        1.9485091570        1.0470573021
 C          1.5949310527        0.7807354575        1.2116160123
 H          2.0401246969       -0.1661388429        0.9540870259
 N          3.6588682762        1.8670935600        0.5860386210
 S          3.9121507275        1.2822628283       -0.9736766990
 O          5.2202712172        1.7973663329       -1.3303248396
 O          2.8330859240        1.6532804285       -1.8583116883
 C          4.0384599186       -0.4817715401       -0.7945014712
 C          3.0643296228       -1.3044122874       -1.3219440630
 C          3.2260324915       -2.6776145850       -1.2115344834
 C          4.3420185430       -3.1969188267       -0.5737504620
 C          5.3048367374       -2.3532539256       -0.0394264222
 C          5.1568963874       -0.9810647757       -0.1549036108
 H          5.8883948547       -0.2884862148        0.2268857109
 H          6.1687543572       -2.7612097794        0.4601127996
 H          4.4594451301       -4.2662880801       -0.4919239090
 H          2.4741963421       -3.3336021370       -1.6212233888
 H          2.1935005572       -0.8621929397       -1.7800258890
 H          4.1654295068        2.7370421033        0.6851739400
 H          2.3431795895        4.0821526471        1.2425058500
 H          0.0180661966        4.1857431640        2.0700638546
 H         -1.2870196866        2.1094416174        2.3405464879
 H         -1.1486888034       -0.2454965829        2.8008619487
 C          0.2749966684       -1.6571172002        2.1358676158
 C         -0.3750418497       -3.0074668153        2.0902238054
 C          0.6472873598       -2.6315483664        1.0620790732
 H          1.6222861706       -3.0932402354        1.1150706166
 H          0.3178472055       -2.4257769023        0.0566218411
 H         -0.1096862227       -3.7349095735        2.8422317927
 H         -1.4117025442       -3.0472264441        1.7881698959
 H          1.0080087175       -1.5013261792        2.9216789127
