  62
        -98.93809738
 C         -1.8376040900       -0.7344917505        0.7674399057
 C         -2.2124055615        0.3556581306       -0.0504590850
 C         -3.6591926466        0.6212466001       -0.1675746531
 C         -4.5329528608       -0.1649326884        0.4887488374
 C         -6.0435654696       -0.1128515601        0.5884805411
 C         -6.8616754624        0.7482253065       -0.3701217299
 C         -6.8462387660        0.2772888116       -1.8239841805
 H         -7.4000711456       -0.6625271995       -1.8905011091
 H         -7.3741734896        1.0178301044       -2.4287445017
 C         -5.4634378736        0.0394296833       -2.4255960362
 H         -4.9627120414       -0.7684653668       -1.8882440509
 H         -5.6007647106       -0.2969285937       -3.4569065040
 C         -4.5442933490        1.2590959809       -2.4540984037
 H         -3.6633393182        0.9946800605       -3.0455447418
 H         -5.0469710590        2.0874628344       -2.9572973922
 C         -4.0479746538        1.7470855666       -1.0819375124
 H         -3.1404940370        2.3373903443       -1.2416809494
 H         -4.7785698065        2.3960458266       -0.6046852216
 H         -6.5511080144        1.7866676806       -0.3024706183
 H         -7.8969149719        0.7042353886       -0.0209115300
 H         -6.3818202513       -1.1511908578        0.5134049552
 H         -6.2616331179        0.2079228684        1.6131606764
 O         -4.1183751958       -1.2003277806        1.2773237521
 C         -2.7806199017       -1.5143592119        1.4333250590
 O         -2.5634469866       -2.4885538689        2.1817441941
 H          2.0387970994       -0.0847194318        0.0491225013
 C          1.6283220861        0.4646909045        0.8793850483
 C          0.4118037403        0.0942165220        1.4316034932
 C         -0.0854715593        0.8291830028        2.5049177462
 C          0.6024421969        1.9237083247        2.9901916404
 C          1.8036333332        2.3062811235        2.4196419658
 C          2.3185656503        1.5700407110        1.3595633117
 N          3.5597323464        1.9055259616        0.8071386429
 S          3.9865368674        1.5471454832       -0.7647213701
 O          5.1646249512        2.3569953267       -0.9978761374
 O          2.9001001569        1.7358157406       -1.6961712479
 C          4.4721215241       -0.1659969451       -0.7185555043
 C          5.1189289415       -0.6578345329        0.3978881275
 C          5.5310440396       -1.9808800853        0.4035316038
 C          5.3008399130       -2.7837225108       -0.7031456433
 C          4.6559129479       -2.2733749568       -1.8190453883
 C          4.2359071717       -0.9521945307       -1.8287626614
 H          3.7184939454       -0.5181964481       -2.6699986941
 H          4.4776287413       -2.8981335980       -2.6800533606
 H          5.6232752930       -3.8128943166       -0.6966479111
 H          6.0310735531       -2.3817507078        1.2704489955
 H          5.2825383107       -0.0079924309        1.2410575622
 H          3.9638224217        2.7713670611        1.1302789035
 H          2.3380547505        3.1671924961        2.7912704009
 H          0.1985824868        2.4893658627        3.8165152998
 H         -1.0283125997        0.5348436138        2.9462123439
 C         -0.3730317572       -1.0948937356        0.9348345276
 H         -0.3417896033       -1.8728239382        1.7123479309
 C          0.1684216242       -1.6776929522       -0.3543831218
 C          1.2509425082       -2.7130961580       -0.3164240973
 C         -0.1470400470       -3.1036045957       -0.6887404301
 H         -0.3578489098       -3.3575325811       -1.7167453208
 H         -0.7345264668       -3.6594112695        0.0277495189
 H          2.0045217066       -2.6999494395       -1.0891801253
 H          1.6194486398       -3.0137850379        0.6525194510
 H          0.1710154917       -0.9597398235       -1.1676956213
 O         -1.3813360087        1.0854891538       -0.6522582350
