  62
        -98.94350911
 C         -1.7159487827       -1.3784203767        0.6337744736
 C         -2.5926357242       -1.0262554208       -0.4216836196
 C         -3.4137841080        0.1743648470       -0.1964135160
 C         -3.2624328817        0.8814580459        0.9374574960
 C         -4.0016987272        2.1451162763        1.2678326013
 C         -3.2343249870        3.3856311383        0.7904915805
 C         -2.7628642033        3.2985969845       -0.6610561910
 H         -2.2659388465        4.2413000345       -0.9002841414
 H         -2.0171071269        2.5050577623       -0.7448523015
 C         -3.8832161377        3.0465771296       -1.6795601948
 H         -4.8504627103        3.2859332210       -1.2361249138
 H         -3.7423741844        3.7181143378       -2.5291607862
 C         -3.9209544345        1.6231713900       -2.2382960678
 H         -2.9281006445        1.3425063153       -2.5984211550
 H         -4.5955797387        1.6132660689       -3.0986076985
 C         -4.4041576666        0.5392507100       -1.2667717187
 H         -5.3555208396        0.8403412558       -0.8232366958
 H         -4.5693214283       -0.3739775901       -1.8458205146
 H         -3.8783533039        4.2580650372        0.9155137175
 H         -2.3587395189        3.5137420968        1.4308339529
 H         -4.9861717985        2.1133336264        0.8048562044
 H         -4.1227330704        2.1981236627        2.3511680911
 O         -2.3732347353        0.5412244796        1.9053949056
 C         -1.5833114855       -0.5858735167        1.7776283018
 O         -0.8095358296       -0.7798365983        2.7378364699
 O         -2.7075464011       -1.6687690310       -1.4972076501
 C         -0.8120076937       -2.6019413757        0.5749083844
 C          0.4066576216       -2.2475940153       -0.2421095079
 C          0.4209157073       -2.3112909960       -1.6305225854
 C          1.5471591409       -1.9236120565       -2.3351367266
 C          2.6767188162       -1.4689663356       -1.6770588512
 C          2.6663608092       -1.3890389451       -0.2904163350
 C          1.5365144054       -1.7781350302        0.4150931721
 H          1.5221278577       -1.7004736222        1.4944039612
 N          3.8090369450       -0.9310879188        0.3967151565
 S          4.4256196064        0.5733633497        0.0042555249
 O          4.9440643125        0.5361517474       -1.3392157572
 O          5.3745869460        0.8794352035        1.0494513366
 C          3.0371294273        1.6880203972        0.0938309071
 C          2.2531729965        1.8899230133       -1.0243390070
 C          1.1520814495        2.7252286515       -0.9253525874
 C          0.8562476280        3.3396398661        0.2816050405
 C          1.6506694464        3.1225965521        1.3965597960
 C          2.7497413337        2.2846067888        1.3051971969
 H          3.3980609956        2.0962871958        2.1460158275
 H          1.4155832563        3.5998795834        2.3344487632
 H          0.0012193899        3.9931160390        0.3529604379
 H          0.5291033087        2.8951109059       -1.7891304880
 H          2.5200346283        1.4029217574       -1.9478271285
 H          3.7215012863       -1.0059056124        1.4004859385
 H          3.5597054650       -1.1638560233       -2.2150676532
 H          1.5472863542       -1.9785442366       -3.4133446322
 H         -0.4625569457       -2.6399480498       -2.1536759414
 H         -0.4795440027       -2.7736121197        1.6075783058
 C         -1.5144544817       -3.8514213868        0.0875486906
 C         -0.8634604761       -5.1804404947        0.3207768025
 C         -2.0926407359       -4.8023014219        1.0901130031
 H         -3.0229515839       -5.2965406156        0.8534336887
 H         -1.9843640908       -4.5567422266        2.1368236445
 H         -0.9469447564       -5.9369763097       -0.4441327562
 H          0.0802964251       -5.1889498852        0.8455016545
 H         -2.0647545853       -3.7135683902       -0.8329076698
