  62
        -98.93759317
 C          1.9633789703        1.4468013814       -0.2420766312
 C          1.8439255691        0.0632263703       -0.5023742124
 C          3.0903039620       -0.7295263867       -0.4617131144
 C          4.2508510045       -0.1007935423       -0.1977786479
 C          5.6274279192       -0.6981061618       -0.0724327502
 C          5.8346398332       -1.4358879271        1.2599390929
 C          4.6771917972       -2.3372857593        1.6815882306
 H          4.8994806189       -2.7160599051        2.6828311894
 H          3.7665824325       -1.7400751523        1.7574591607
 C          4.4235914403       -3.5383612995        0.7735187242
 H          5.3280377923       -4.1490483108        0.7269545867
 H          3.6415980859       -4.1399931903        1.2440742617
 C          3.9791319774       -3.2158680492       -0.6549030727
 H          3.5988579667       -4.1432480949       -1.0931804764
 H          4.8215754327       -2.9083514651       -1.2685856932
 C          2.8530614032       -2.1917457297       -0.7542842688
 H          2.4416674655       -2.2240677580       -1.7702650079
 H          2.0309606530       -2.4996404435       -0.0976998905
 H          6.7509094073       -2.0245824508        1.1894609303
 H          5.9752661880       -0.6864854763        2.0429175015
 H          5.8283422769       -1.3547487267       -0.9136579596
 H          6.3350994585        0.1324583418       -0.1228295741
 O          4.3154813371        1.2411573784        0.0428989928
 C          3.1914369156        2.0434971089        0.0341221686
 O          3.4081171613        3.2472157169        0.2844696990
 H         -1.9840625215        1.9864805215       -0.6467613247
 C         -1.6550165805        1.6789191405        0.3337531175
 C         -0.3171296007        1.7863867467        0.6810424096
 C          0.0687457915        1.3895293178        1.9586544400
 C         -0.8532119077        0.8798403117        2.8525744715
 C         -2.1868157358        0.7666421733        2.4995097302
 C         -2.5853967076        1.1698270242        1.2327067865
 N         -3.9460880635        1.0751205890        0.8743946844
 S         -4.6618695409       -0.4372524770        0.8132122952
 O         -6.0301952973       -0.1975044578        0.4145451876
 O         -4.4696143458       -1.1005172641        2.0770500007
 C         -3.8048366810       -1.3093059011       -0.4854697648
 C         -2.5086514470       -1.7304493872       -0.2648639007
 C         -1.8225109933       -2.3511669047       -1.2961559797
 C         -2.4429882648       -2.5431140556       -2.5208720376
 C         -3.7475966319       -2.1192212279       -2.7253215287
 C         -4.4351236275       -1.4885606798       -1.7013220345
 H         -5.4479322641       -1.1370489113       -1.8159596247
 H         -4.2264450624       -2.2720199242       -3.6793795420
 H         -1.9030995552       -3.0243522258       -3.3213576499
 H         -0.7989534303       -2.6502609570       -1.1421363499
 H         -2.0467986545       -1.5644467121        0.6948169425
 H         -4.1709870958        1.5773964937        0.0266292041
 H         -2.9160600455        0.3560330122        3.1783507980
 H         -0.5331831246        0.5703946834        3.8364526985
 H          1.1097560054        1.4785132951        2.2398062586
 C          0.7272974306        2.3261268130       -0.2654548537
 H          1.0470141336        3.3118105824        0.1037375843
 C          0.2335238800        2.4757640647       -1.6902639069
 C         -0.4695144044        3.7262017833       -2.1241670608
 C          0.9263433677        3.4492174400       -2.5938757022
 H          1.0801686852        3.1759488706       -3.6269723361
 H          1.7357089592        4.0264210646       -2.1706048286
 H         -1.2731099709        3.6457174815       -2.8410306498
 H         -0.6102942445        4.5037186958       -1.3883971670
 H         -0.0827578209        1.5319342999       -2.1203482534
 O          0.7468813944       -0.4979595425       -0.7531995699
