  62
        -98.94792502
 C         -0.9349606535       -1.0717087273        0.7072271167
 C         -1.4495562358       -0.8943009183       -0.5999217127
 C         -2.1720432057        0.3624207631       -0.8320901994
 C         -2.2756608442        1.2683737138        0.1565786425
 C         -2.9520641086        2.6099228638        0.0617281629
 C         -4.4720385185        2.5610995688        0.2697999946
 C         -5.2695809039        1.9560140163       -0.8859791446
 H         -4.9861672255        2.4470108742       -1.8175554304
 H         -6.3213929261        2.1850792218       -0.7036064927
 C         -5.1147493070        0.4361762683       -1.0360371375
 H         -6.0974104269       -0.0172065364       -1.1838234173
 H         -4.7036680339        0.0185162461       -0.1142644474
 C         -4.2351780636        0.0016405814       -2.2087061420
 H         -4.7031507143        0.2996479929       -3.1496821227
 H         -4.1627893265       -1.0888415623       -2.1991445969
 C         -2.8102208993        0.5693450336       -2.1714553553
 H         -2.8173769553        1.6284394245       -2.4307543206
 H         -2.2026113071        0.0391294465       -2.9095381241
 H         -4.8128647653        3.5883211971        0.4182945654
 H         -4.6805370232        2.0047657550        1.1863534266
 H         -2.5192345396        3.2345614484        0.8462146689
 H         -2.7281457490        3.0641400791       -0.9045423596
 O         -1.7399536588        1.0722501997        1.3913127335
 C         -1.0567121404       -0.0954001241        1.6942819964
 O         -0.6071662112       -0.1403504635        2.8573383651
 H          1.4563201873       -0.3279918384        0.3504574612
 C          1.7770451811       -1.2529636192       -0.1067939261
 C          1.0603850379       -2.4165188368        0.1417050393
 C          1.4961022293       -3.5999578783       -0.4399435002
 C          2.6035157698       -3.6031157589       -1.2707730541
 C          3.2873909351       -2.4338180917       -1.5487637209
 C          2.8657788429       -1.2462310176       -0.9616846979
 N          3.5338104789       -0.0347739798       -1.1987902309
 S          2.6412170591        1.3735310170       -1.3523905097
 O          1.3622210984        1.1411876212       -1.9811131891
 O          3.5313484100        2.2818055642       -2.0472755525
 C          2.4191921308        1.9577469610        0.3133927051
 C          1.1818381819        2.4382873567        0.6917900043
 C          1.0114551473        2.9151671839        1.9811599357
 C          2.0798103954        2.9069625394        2.8638525186
 C          3.3189970777        2.4282044236        2.4661786588
 C          3.4955268506        1.9495501012        1.1779966021
 H          4.4417592413        1.5664495389        0.8341742206
 H          4.1455860009        2.4228119331        3.1583379750
 H          1.9409281438        3.2719720425        3.8691613665
 H          0.0438325724        3.2732937170        2.2943551609
 H          0.3735280042        2.4088734965       -0.0235775112
 H          4.2796156512       -0.0824538708       -1.8779809113
 H          4.1361520016       -2.4351294923       -2.2156375213
 H          2.9294617157       -4.5281612659       -1.7217741568
 H          0.9634125410       -4.5177929363       -0.2521027802
 C         -0.1457586711       -2.3232438772        1.0454878914
 H          0.2107167397       -2.1894210278        2.0777570824
 C         -1.0375698197       -3.5462346382        0.9906594085
 C         -0.7692643841       -4.7200645263        1.8826582458
 C         -1.9447840035       -3.8299637540        2.1488562786
 H         -2.9363831284       -4.2065739625        1.9473966212
 H         -1.8970086735       -3.1547373902        2.9910278810
 H          0.0741658512       -4.6563846284        2.5533412359
 H         -0.9568990352       -5.7120895039        1.5002106883
 H         -1.4229612894       -3.7339187997       -0.0049807678
 O         -1.3172328006       -1.7400986239       -1.5225345821
