  62
        -98.94026091
 C         -2.6153574954       -0.8115295536       -0.1079233525
 C         -2.1646890833        0.1661610125       -1.0304972499
 C         -2.6875851520        1.5260537510       -0.8240853007
 C         -3.5706698425        1.7716356393        0.1593688787
 C         -4.2283001818        3.0918060350        0.4593665629
 C         -3.3902084447        4.0276945664        1.3402622534
 C         -2.1780603929        4.6532353330        0.6497102899
 H         -2.4933299385        5.1210520752       -0.2834301876
 H         -1.8078869711        5.4451488988        1.3036987374
 C         -1.0342433592        3.6680367980        0.3714085660
 H         -0.0825761196        4.1134063976        0.6691977365
 H         -1.1643891619        2.7695467155        0.9795201451
 C         -0.8904806969        3.2491415372       -1.0917266208
 H         -0.0779062544        2.5197253659       -1.1520460858
 H         -0.6114464651        4.1157035798       -1.6963048509
 C         -2.1517358441        2.6192409487       -1.6980259157
 H         -2.9120821362        3.3831921089       -1.8637176293
 H         -1.8837683495        2.1751772650       -2.6601410844
 H         -4.0470413128        4.8330016433        1.6770950045
 H         -3.0605769799        3.4745006019        2.2225874209
 H         -4.4759521304        3.5958014455       -0.4752951381
 H         -5.1559824109        2.8609194524        0.9875984229
 O         -4.0052593018        0.7991032203        1.0046541732
 C         -3.5184461907       -0.4924462121        0.9107795213
 O         -3.9760251109       -1.2698150475        1.7740067976
 H          0.1354997594       -0.7859573423       -0.2219412379
 C          0.2036076535       -1.6098743095        0.4711746759
 C         -0.8789813715       -2.4586263943        0.6540567057
 C         -0.7573562568       -3.5169754470        1.5473496239
 C          0.4239767971       -3.7251110222        2.2356930275
 C          1.5035665031       -2.8833302430        2.0450753832
 C          1.3890451723       -1.8126309940        1.1634134987
 N          2.4585286835       -0.9193288168        1.0045769875
 S          2.6432543852       -0.0393203146       -0.4222002673
 O          1.7462167045        1.0857201632       -0.3937343274
 O          2.5690600410       -0.9191817963       -1.5663986139
 C          4.3196154989        0.5298476979       -0.2011469078
 C          4.5420761680        1.6604966485        0.5617568446
 C          5.8448060786        2.0883451845        0.7627089632
 C          6.8981576667        1.3819075829        0.2012628844
 C          6.6597961258        0.2502719260       -0.5640918456
 C          5.3590332981       -0.1831165626       -0.7679428976
 H          5.1246777248       -1.0507804211       -1.3635636085
 H          7.4802773759       -0.2946238718       -1.0024166958
 H          7.9110269322        1.7175552194        0.3582699440
 H          6.0333833829        2.9698082962        1.3540095063
 H          3.6907039710        2.1806118237        0.9691544675
 H          3.3385698042       -1.2891835002        1.3360396880
 H          2.4266545998       -3.0425774927        2.5811494791
 H          0.5058314197       -4.5511591793        2.9255592775
 H         -1.6012662763       -4.1715334925        1.7070644054
 C         -2.1619400910       -2.2614888239       -0.1204299539
 H         -2.9513156906       -2.8229749284        0.3996942366
 C         -2.0038233660       -2.8439958044       -1.5124643155
 C         -2.1956813716       -4.3156245221       -1.7160940134
 C         -3.2119139166       -3.3470014518       -2.2408461777
 H         -3.2745363860       -3.1825413304       -3.3059038768
 H         -4.1628080603       -3.2798000342       -1.7319785626
 H         -2.4639987471       -4.9117965196       -0.8572055095
 H         -1.5556971117       -4.8225482375       -2.4218300318
 H         -1.2385623580       -2.3489642873       -2.0968280442
 O         -1.3817437503       -0.0564497405       -1.9920452313
