  62
        -98.93443960
 C         -2.3234072097        0.6495192231        0.0963050239
 C         -3.5059148151        0.9896376666       -0.5973045599
 C         -4.7733522521        0.4607793084       -0.0569003375
 C         -4.7340184968       -0.2994762079        1.0535459653
 C         -5.8791725168       -0.9768735483        1.7583873179
 C         -6.3639467497       -2.2375289868        1.0240864044
 C         -6.5031931484       -2.0871438079       -0.4885191242
 H         -6.7444075259       -3.0712065042       -0.8990911370
 H         -5.5410023065       -1.7885781184       -0.9086045185
 C         -7.5835834793       -1.1115929993       -0.9492116225
 H         -8.5498457178       -1.4358286033       -0.5564990942
 H         -7.6312513336       -1.1719911347       -2.0395303606
 C         -7.3700813140        0.3539912116       -0.5647535535
 H         -7.6251507140        0.5278563891        0.4770629766
 H         -8.0681531850        0.9511490430       -1.1587369994
 C         -5.9748732591        0.8944498696       -0.8621920210
 H         -6.0007767548        1.9881293341       -0.7838098832
 H         -5.7258436153        0.6886181990       -1.9095246961
 H         -7.3213489865       -2.5391061918        1.4522099320
 H         -5.6423010044       -3.0359092995        1.2134985998
 H         -6.6948879148       -0.2752210629        1.9046247015
 H         -5.5105231594       -1.2690994217        2.7440473144
 O         -3.5657534328       -0.6002776405        1.6913701647
 C         -2.3408979240       -0.1441328233        1.2420785704
 O         -1.3691128688       -0.5042118143        1.9336141284
 O         -3.5098802420        1.7009006699       -1.6392654443
 C         -0.9933175079        1.1692407533       -0.4146026806
 C         -0.0535492440        0.0250449104       -0.7031515283
 C         -0.5070771101       -1.0405950888       -1.4775849980
 C          0.3229490863       -2.1037484026       -1.7729601339
 C          1.6301205483       -2.1207629688       -1.3183501997
 C          2.0938989136       -1.0622583725       -0.5475974815
 C          1.2534111772        0.0009507011       -0.2449196334
 H          1.6421324384        0.8068709107        0.3543857199
 N          3.4080741643       -1.0580427258       -0.0532407141
 S          4.2237400358        0.4161582900        0.0508391284
 O          3.8683102885        1.0676838034        1.2861208045
 O          4.0175327575        1.1810072737       -1.1585172510
 C          5.9107845418       -0.1569477687        0.1374625707
 C          6.6635078178       -0.2224753918       -1.0200339729
 C          7.9633336616       -0.6983319606       -0.9485912779
 C          8.4847829850       -1.1008944086        0.2717383563
 C          7.7176809438       -1.0281932333        1.4251213903
 C          6.4176543856       -0.5524423006        1.3610081444
 H          5.7871082293       -0.4695816648        2.2309829335
 H          8.1274822116       -1.3390973388        2.3725594538
 H          9.4964845116       -1.4708908462        0.3250554448
 H          8.5633390931       -0.7526179674       -1.8427187798
 H          6.2193773309        0.1104170821       -1.9443680965
 H          3.9862784567       -1.7783868893       -0.4638644635
 H          2.2807843777       -2.9498869740       -1.5513507056
 H         -0.0466413662       -2.9240412529       -2.3699741382
 H         -1.5256269650       -1.0229442554       -1.8416602460
 H         -1.2200510018        1.6717708663       -1.3675541461
 C         -0.4241007136        2.1910574142        0.5466364746
 C          0.5005456503        3.2608425319        0.0505445881
 C         -0.8950939009        3.6110741937        0.4688510064
 H         -1.0367288590        4.1586430109        1.3884726570
 H         -1.6142180518        3.8521407495       -0.3003688492
 H          1.3244198640        3.5607154056        0.6814178830
 H          0.7364948177        3.2676247299       -1.0032208221
 H         -0.2404004909        1.7776741512        1.5329037347
