  62
        -98.92951539
 C         -2.2031402603       -0.2347243302        0.7842310692
 C         -2.9524280704       -0.4191351800       -0.4053133208
 C         -3.8166296304        0.7071313200       -0.7918781406
 C         -3.8289878204        1.8337364699       -0.0590638704
 C         -4.6425953004        3.0682059999       -0.3384575302
 C         -6.0830565804        2.9982324798        0.1868905098
 C         -7.0154508304        2.0696360799       -0.5922136203
 H         -8.0326859704        2.2840473298       -0.2585094802
 H         -6.9635776805        2.3123418401       -1.6540188703
 C         -6.7352031504        0.5739266499       -0.3897341305
 H         -6.1182576103        0.4361242698        0.5012094894
 H         -7.6759185904        0.0480071298       -0.2116589106
 C         -6.0514805004       -0.1092454799       -1.5741585806
 H         -5.8656562504       -1.1526024100       -1.3072071508
 H         -6.7178156104       -0.0963910198       -2.4395494306
 C         -4.7127328804        0.5212299502       -1.9790442906
 H         -4.8815257505        1.4732144902       -2.4818384205
 H         -4.2087275604       -0.1569774797       -2.6719272007
 H         -6.0579316004        2.6932029197        1.2356223998
 H         -6.4942909804        4.0095074298        0.1449866100
 H         -4.6541416405        3.2646417401       -1.4109237102
 H         -4.1336255804        3.8952489399        0.1612659199
 O         -3.0561424404        1.9897215898        1.0492906496
 C         -2.2407254703        0.9663465097        1.4974100194
 O         -1.5973271703        1.2467142696        2.5312120894
 O         -2.9169506603       -1.4506921399       -1.1192293209
 C         -1.2683112803       -1.3052077402        1.3386207290
 C         -0.1795513503       -1.5747293800        0.3281258790
 C         -0.2079011803       -2.5455891899       -0.6651827412
 C          0.8384094597       -2.6611703497       -1.5655172512
 C          1.9272670696       -1.8118637197       -1.5140518511
 C          1.9637442297       -0.8264964799       -0.5359793910
 C          0.9236081597       -0.7262027200        0.3758197091
 H          0.9547185997        0.0462027499        1.1349503892
 N          3.0444224096        0.0777665102       -0.4871727409
 S          4.5997310896       -0.5800105598       -0.5616729410
 O          4.8824495496       -0.9337616296       -1.9296353211
 O          4.7352552397       -1.6461498499        0.4066496288
 C          5.5834292696        0.8260166502       -0.0843576609
 C          5.9775751697        0.9611387500        1.2331694091
 C          6.7192481996        2.0731209800        1.5999207993
 C          7.0488808996        3.0270265401        0.6488425894
 C          6.6464039596        2.8768256003       -0.6700115306
 C          5.9058771396        1.7668091603       -1.0437238508
 H          5.5790003495        1.6036705704       -2.0573367508
 H          6.9070377795        3.6196702104       -1.4065453405
 H          7.6252703796        3.8918318901        0.9372447195
 H          7.0362151397        2.1909832498        2.6236558193
 H          5.7065765697        0.1907216499        1.9373928990
 H          2.9697839896        0.7015801300        0.3056493692
 H          2.7444528096       -1.8988029996       -2.2114700512
 H          0.7980550497       -3.4249098096       -2.3279396213
 H         -1.0562452103       -3.1973433199       -0.7679610712
 H         -0.7747211103       -0.8130506503        2.1909491191
 C         -2.0360654302       -2.4662028803        1.9575810189
 C         -2.8103995402       -3.5156917302        1.2210233588
 C         -1.5535532902       -3.8856950203        1.9489154787
 H         -1.6414570501       -4.4588084504        2.8600784386
 H         -0.6717241702       -4.1142479902        1.3711321086
 H         -3.7548684302       -3.8218824503        1.6491749288
 H         -2.8238568503       -3.4864524901        0.1447020888
 H         -2.4978675702       -2.1315157305        2.8842483190
