  62
        -98.93771955
 C         -2.5542201854        0.1243198015        0.5123076570
 C         -2.0796148904        0.7537002531       -0.6614336257
 C         -1.3533013780        2.0234708264       -0.4835642068
 C         -1.1899303247        2.5107238447        0.7589027908
 C         -0.4134783340        3.7287725299        1.1866233105
 C          1.0180095984        3.8018467098        0.6283746574
 C          1.2167227729        4.9495497476       -0.3621032346
 H          0.6858154213        5.8273730245        0.0122685848
 H          2.2791816148        5.1996706357       -0.3989390486
 C          0.7612951366        4.6503624450       -1.7887905885
 H          0.8335902296        5.5787742389       -2.3604727192
 H          1.4492434971        3.9320302019       -2.2398011797
 C         -0.6598805609        4.0985465370       -1.9273910534
 H         -1.0038645966        4.3259132801       -2.9389112132
 H         -1.3392468804        4.6009115899       -1.2406554981
 C         -0.7544704346        2.5777644624       -1.7471364459
 H         -1.3677697963        2.1521926870       -2.5484380003
 H          0.2334572777        2.1173144099       -1.8578579196
 H          1.7014633625        3.9480191464        1.4668505294
 H          1.2772468539        2.8471341864        0.1675861544
 H         -0.9696055428        4.6281823993        0.9148388616
 H         -0.3884570798        3.6870184134        2.2777016615
 O         -1.7439933127        1.9145362306        1.8558350516
 C         -2.3868157311        0.6937975241        1.7711791382
 O         -2.7652037080        0.2284353040        2.8675342477
 H         -0.4983273505       -1.2329520605        0.9073690141
 C         -0.7385427665       -1.9659090560        0.1503082153
 C         -2.0636775839       -2.1625608272       -0.2183591349
 C         -2.3475597759       -3.1281094111       -1.1747198347
 C         -1.3214420295       -3.8404548200       -1.7726981246
 C         -0.0002782765       -3.5942809614       -1.4481890050
 C          0.2922119183       -2.6458544704       -0.4736529689
 N          1.6211735658       -2.3721323648       -0.0992870125
 S          2.0178316437       -0.7901502284        0.3447290410
 O          1.6119937641       -0.5731732078        1.7117535400
 O          1.5286615128        0.1559339517       -0.6319632318
 C          3.7969581911       -0.8909822048        0.2665991473
 C          4.4744096672       -0.3055037002       -0.7855352519
 C          5.8550839774       -0.4195539632       -0.8405860227
 C          6.5300910967       -1.1165865495        0.1498390365
 C          5.8362263992       -1.6989235010        1.2005855006
 C          4.4565892439       -1.5864300153        1.2627104441
 H          3.8751370086       -2.0124656056        2.0636154538
 H          6.3642946768       -2.2381546819        1.9703224568
 H          7.6040412489       -1.2045131186        0.1044320500
 H          6.3968571061        0.0351084642       -1.6541393793
 H          3.9068190499        0.2293001306       -1.5301109916
 H          2.2926002635       -2.7395999557       -0.7604201936
 H          0.7982060110       -4.1261152548       -1.9428585025
 H         -1.5541519310       -4.5819891635       -2.5219171865
 H         -3.3694009604       -3.3092193822       -1.4658478897
 C         -3.1115268327       -1.2855786554        0.4290753407
 H         -3.2572616297       -1.6200905887        1.4672584838
 C         -4.4450518571       -1.3096363647       -0.2871067299
 C         -5.4696869303       -2.3474593147        0.0578298040
 C         -5.6778255686       -0.9224317454        0.4710800279
 H         -6.4329590735       -0.3406427164       -0.0355438357
 H         -5.5545333672       -0.6652003462        1.5132932286
 H         -6.0880858666       -2.7441993584       -0.7331078293
 H         -5.2171260168       -3.0637762325        0.8250270393
 H         -4.3660698620       -0.9842920415       -1.3179189708
 O         -2.2374981906        0.2649224387       -1.8120530153
