  62
        -98.94417257
 C          2.6418225487        1.0908248750        0.1984432565
 C          2.7632785577        0.2887956600       -0.9622573449
 C          3.5731975367       -0.9293302605       -0.8146463412
 C          4.1394004339       -1.2061864011        0.3741240918
 C          4.9338481365       -2.4427417534        0.6782161074
 C          4.0326442893       -3.5602215031        1.2226267977
 C          2.7771281382       -3.8051665679        0.3851762568
 H          2.2331801545       -4.6310927456        0.8489312299
 H          2.1324219250       -2.9246874950        0.4423375107
 C          3.0512205154       -4.1354832693       -1.0887777995
 H          4.0889610578       -4.4477209893       -1.2107195272
 H          2.4221787723       -4.9789081835       -1.3807764358
 C          2.7475882581       -2.9946305565       -2.0618331033
 H          1.7387126737       -2.6149741507       -1.8801402876
 H          2.7668447723       -3.3997855923       -3.0769054691
 C          3.7208780940       -1.8096873619       -2.0235834603
 H          4.7467779382       -2.1717386643       -2.1148347364
 H          3.5014047651       -1.1727181787       -2.8852934760
 H          4.6184612625       -4.4793175629        1.2801890899
 H          3.7217680918       -3.2920592831        2.2352991361
 H          5.4376540517       -2.7762922325       -0.2267544050
 H          5.6838683391       -2.1940927005        1.4309046360
 O          4.0040007594       -0.4075241268        1.4647612499
 C          3.2422631931        0.7488117659        1.4088676058
 O          3.1720073871        1.3724376450        2.4886818864
 H          0.3200780104        0.3895903845        1.1429204925
 C         -0.2371171156        0.9581112328        0.4067665827
 C          0.3829788990        2.0277703059       -0.2279969094
 C         -0.3490858375        2.7600716975       -1.1528655095
 C         -1.6562183586        2.4108414969       -1.4465604321
 C         -2.2609619470        1.3328307968       -0.8277443326
 C         -1.5438543351        0.6025769171        0.1113264027
 N         -2.1479552569       -0.5001599173        0.7424407906
 S         -3.6401006166       -0.2641517962        1.4794836240
 O         -3.7974720927        1.1008922518        1.9256190103
 O         -3.7235989939       -1.2878283801        2.4984123597
 C         -4.8169362166       -0.6279068294        0.1942094253
 C         -4.7671113200       -1.8738577081       -0.3995726700
 C         -5.6799585203       -2.1762425828       -1.3972444784
 C         -6.6235196069       -1.2342615767       -1.7797297254
 C         -6.6628784215        0.0107814181       -1.1709435572
 C         -5.7518394369        0.3200987789       -0.1728588248
 H         -5.7411001902        1.2763766744        0.3254067284
 H         -7.3973084780        0.7413901249       -1.4694691887
 H         -7.3325093617       -1.4724005017       -2.5568339826
 H         -5.6524787098       -3.1435210708       -1.8725672858
 H         -4.0213357259       -2.5780857130       -0.0703273679
 H         -1.5275171309       -0.9983964736        1.3641086988
 H         -3.2752889758        1.0531821793       -1.0605837046
 H         -2.2106013774        2.9850075675       -2.1729967343
 H          0.1048592344        3.6025859607       -1.6477852900
 C          1.8067967580        2.3573259794        0.1535912625
 H          1.7968215962        2.7526477231        1.1806336183
 C          2.4568587932        3.3802732488       -0.7547631775
 C          2.2798742459        4.8449126023       -0.4931685468
 C          3.6005704482        4.1899450577       -0.2249325600
 H          4.4290022326        4.4054642671       -0.8828187705
 H          3.8917847392        4.0220664491        0.8021547472
 H          1.6766462258        5.1326361611        0.3548087721
 H          2.2047912406        5.5145960965       -1.3365860243
 H          2.5155495398        3.0442558979       -1.7834330301
 O          2.2224358440        0.5710122303       -2.0621135035
