  62
        -98.94467499
 C         -2.5698271919        0.1796464611        0.3541183579
 C         -2.1458069032        0.7166154246       -0.8859516674
 C         -1.6697476878        2.1067687004       -0.8517307626
 C         -1.6482850712        2.7682311808        0.3192411221
 C         -1.1729673556        4.1805779891        0.5024760080
 C          0.3154409709        4.2368327381        0.8692193384
 C          1.2152844867        3.4143087238       -0.0535290028
 H          1.0129787049        2.3503921414        0.0947853855
 H          2.2468294289        3.5834884757        0.2657766093
 C          1.0798722487        3.7503932044       -1.5452162428
 H          2.0801214429        3.8005962494       -1.9802912034
 H          0.6215105644        4.7334412278       -1.6652784662
 C          0.2958926841        2.7151859644       -2.3547811060
 H          0.6698559045        1.7157431951       -2.1194206551
 H          0.4821041295        2.8994926100       -3.4165166101
 C         -1.2245464469        2.7188210307       -2.1494938204
 H         -1.6678006423        2.1019733425       -2.9367600356
 H         -1.6104354154        3.7362077315       -2.2496767183
 H          0.4375812656        3.8578251913        1.8868664489
 H          0.6330726325        5.2815989462        0.8530573151
 H         -1.7525383347        4.6322797976        1.3099604119
 H         -1.3519842453        4.7369030125       -0.4157156996
 O         -2.0476829869        2.2126207405        1.4937699006
 C         -2.4923122319        0.9025641192        1.5425008180
 O         -2.7976628366        0.5035711601        2.6874923720
 O         -2.1840829166        0.0751449013       -1.9680779252
 C         -3.0403785529       -1.2619945523        0.4353111814
 C         -1.9183887729       -2.1785827540        0.0100613282
 C         -2.0912392685       -3.2896397698       -0.8041929416
 C         -1.0078831485       -4.0754193980       -1.1630995472
 C          0.2695478511       -3.7643662319       -0.7337744187
 C          0.4485217876       -2.6633021839        0.0930843494
 C         -0.6382478558       -1.8980505204        0.4733583143
 H         -0.4794633067       -1.0453065091        1.1220330319
 N          1.7640916864       -2.2829349676        0.4967231604
 S          2.0506430547       -0.6266901825        0.4982943424
 O          1.7300664853       -0.0320575799        1.7830077089
 O          1.4167029495       -0.0657040910       -0.6654215668
 C          3.8197532732       -0.6211584127        0.2750936272
 C          4.6539851958       -0.3301995567        1.3362395963
 C          6.0262320089       -0.3675682433        1.1413627487
 C          6.5373812206       -0.6967758438       -0.1044978169
 C          5.6867453871       -0.9856992343       -1.1615895395
 C          4.3148724739       -0.9488709437       -0.9725338368
 H          3.6133208212       -1.1579520178       -1.7634486201
 H          6.0873809845       -1.2391102223       -2.1298962882
 H          7.6051747472       -0.7264156001       -0.2536573858
 H          6.6891052159       -0.1408959004        1.9609527548
 H          4.2108908221       -0.0736635188        2.2852601496
 H          2.0578164561       -2.6991279915        1.3693601734
 H          1.1215299664       -4.3538509972       -1.0306153600
 H         -1.1612393142       -4.9320197105       -1.8015964950
 H         -3.0759843526       -3.5352453948       -1.1676244465
 H         -3.2484805631       -1.4522947619        1.4994950040
 C         -4.3165548963       -1.4586578570       -0.3556361377
 C         -5.3144447086       -2.4941020284        0.0661000236
 C         -5.6172042084       -1.0393692809        0.2585201532
 H         -6.3598210190       -0.5758577543       -0.3731296844
 H         -5.5827099865       -0.6352476321        1.2601800607
 H         -5.8552399384       -3.0302462061       -0.6989918284
 H         -5.0858286414       -3.0820818413        0.9421844578
 H         -4.1797913520       -1.2746424006       -1.4147762372
