  62
        -98.94527249
 C         -1.4852421784       -0.7691461271       -0.5322131020
 C         -2.6344288921       -1.0418170277        0.2555253205
 C         -3.4052748101        0.1169123934        0.7203614931
 C         -2.9744717562        1.3537838311        0.4135824889
 C         -3.6779619776        2.6260126747        0.7868061564
 C         -4.6600369652        3.0620603566       -0.3095655517
 C         -5.5897854032        1.9450312228       -0.7837340543
 H         -6.2573775168        2.3740416928       -1.5340100542
 H         -4.9957307574        1.1761630160       -1.2828188997
 C         -6.4223218347        1.2964527493        0.3309862829
 H         -7.4521080360        1.1915646042       -0.0168653833
 H         -6.4406128229        1.9470568027        1.2060544883
 C         -5.9487889968       -0.0975164880        0.7470613118
 H         -6.7244041586       -0.5473722061        1.3725405474
 H         -5.8377117319       -0.7265257514       -0.1396595497
 C         -4.6366475708       -0.1485980659        1.5402649286
 H         -4.6904016665        0.5391964589        2.3870064505
 H         -4.5225002195       -1.1642795326        1.9305003391
 H         -4.0845672214        3.4167126517       -1.1676814502
 H         -5.2530111245        3.8960758222        0.0703189330
 H         -4.2068825201        2.4784010751        1.7265856325
 H         -2.9258656734        3.4051374723        0.9240618611
 O         -1.8622525574        1.5812474779       -0.3248212813
 C         -1.0880572451        0.5379352989       -0.8141446226
 O         -0.1106891617        0.9260398641       -1.4827776771
 H          1.3817631950       -0.4311521673       -0.1706184524
 C          1.3643930892       -1.3791431740        0.3402336251
 C          0.3737505702       -2.3037118178        0.0361965528
 C          0.3563918155       -3.5176892090        0.7116675533
 C          1.3017789611       -3.7933563274        1.6834768162
 C          2.2654287114       -2.8575723757        2.0083421635
 C          2.2929038036       -1.6379944915        1.3372756252
 N          3.2692875854       -0.6871689775        1.6551319203
 S          3.0262763677        0.9673845938        1.5387514089
 O          3.8663305797        1.5154590265        2.5858940331
 O          1.6270750228        1.3138691741        1.6035889103
 C          3.7610224866        1.3770072461       -0.0303631705
 C          2.9858180614        1.7085599291       -1.1216729793
 C          3.6169936315        2.0029337147       -2.3219731206
 C          4.9990688713        1.9628251591       -2.4099787564
 C          5.7639590383        1.6302687248       -1.3013664266
 C          5.1413989231        1.3342829387       -0.1009182636
 H          5.6964932785        1.0842497256        0.7879118899
 H          6.8394100138        1.6010454028       -1.3707545353
 H          5.4816422449        2.1932528938       -3.3468364246
 H          3.0159348694        2.2587408275       -3.1801364490
 H          1.9099118559        1.7246433251       -1.0364487234
 H          3.8471097945       -0.9222750745        2.4483269928
 H          2.9907595098       -3.0614992814        2.7814266519
 H          1.2783032110       -4.7386771071        2.2041593815
 H         -0.4182385517       -4.2360993832        0.4876914940
 C         -0.6870839878       -1.9795961988       -0.9901068969
 H         -1.4049465643       -2.8117329626       -0.9949432945
 C         -0.0883352114       -1.8586501296       -2.3760072561
 C          0.2396637459       -3.1095817341       -3.1330895600
 C         -0.9093664143       -2.2504530691       -3.5662721350
 H         -0.8122965682       -1.6697399491       -4.4710489392
 H         -1.9120009097       -2.6101759971       -3.3853259016
 H          1.1302068054       -3.1223625307       -3.7420913581
 H          0.0151939293       -4.0541453663       -2.6611741351
 H          0.5761515281       -1.0128545172       -2.4890980468
 O         -3.0030551287       -2.2114704350        0.5495284699
