  62
        -98.94275618
 C         -1.9899465102       -1.4604807803       -0.0661713502
 C         -1.6980837201       -0.1370330802       -0.4754022997
 C         -2.8607578000        0.7214493100       -0.7511292393
 C         -4.1017812400        0.2251050502       -0.6042326594
 C         -5.3677964899        1.0084413104       -0.7919996590
 C         -5.8240590997        1.6474145500        0.5275065813
 C         -4.7168724995        2.3979404396        1.2681237814
 H         -5.1629965594        2.8277814494        2.1676301416
 H         -3.9590130496        1.6828433894        1.5964125111
 C         -4.0440817594        3.5092421498        0.4502142518
 H         -3.9446302793        4.3953797696        1.0805872821
 H         -4.6782207795        3.7822364602       -0.3941177781
 C         -2.6430872695        3.1648688198       -0.0590732485
 H         -2.1834446294        4.0845489298       -0.4307998782
 H         -2.0302154195        2.8016790994        0.7699551813
 C         -2.5839049698        2.1315531102       -1.1911016389
 H         -3.2623095398        2.4254418505       -1.9945743187
 H         -1.5642295798        2.1267412201       -1.5876420590
 H         -6.6486256296        2.3297805202        0.3132419016
 H         -6.1988828898        0.8574147698        1.1825774811
 H         -6.1452161601        0.3281325906       -1.1439078091
 H         -5.2052902199        1.7781274207       -1.5440257387
 O         -4.3443684802       -1.0503090899       -0.2063472998
 C         -3.3023684103       -1.9140424902        0.0901263398
 O         -3.6672652504       -3.0397679603        0.4833824695
 O         -0.5341546600        0.3201072597       -0.6044773897
 C         -0.8859781403       -2.4461823506        0.2752638194
 C          0.1707175199       -1.7730074410        1.1178500295
 C         -0.2051525999       -1.2296394714        2.3445715697
 C          0.7220238202       -0.6073042118        3.1566141099
 C          2.0465022202       -0.5164899519        2.7647613498
 C          2.4347205700       -1.0603320115        1.5466003496
 C          1.4993746898       -1.6885506811        0.7332989094
 H          1.8246195597       -2.0787687908       -0.2159528007
 N          3.7830811100       -1.0208982816        1.1505085894
 S          4.2642206099       -0.4889671411       -0.3603227204
 O          3.6172230497       -1.2621670907       -1.3877427206
 O          5.7091725899       -0.5640440613       -0.3216120006
 C          3.7734455201        1.2249438090       -0.4388853698
 C          4.7507272403        2.1947630788       -0.3181201495
 C          4.3806704805        3.5293508089       -0.3358954790
 C          3.0425254405        3.8711353091       -0.4633157288
 C          2.0752866304        2.8850985393       -0.5767600890
 C          2.4371237402        1.5463468592       -0.5668753695
 H          1.6901895001        0.7736424894       -0.6532167097
 H          1.0310040504        3.1380541595       -0.6704085689
 H          2.7515663307        4.9098753291       -0.4741328284
 H          5.1333669306        4.2963997587       -0.2483805689
 H          5.7778337803        1.8817610586       -0.2210278498
 H          4.4018650001       -0.6354731219        1.8499417695
 H          2.7738765703       -0.0312982022        3.3980633699
 H          0.4130982604       -0.1864421821        4.1017266601
 H         -1.2415504799       -1.2983830514        2.6484031298
 H         -1.3721615904       -3.2138295607        0.9008304292
 C         -0.3093927405       -3.1725118903       -0.9308381609
 C         -1.1340840607       -3.4322044197       -2.1551448209
 C          0.0099170294       -2.4671362399       -2.2129979607
 H          0.9074638194       -2.7500557898       -2.7440564209
 H         -0.2083891304       -1.4127472098       -2.2707627003
 H         -1.0309370509       -4.3872815796       -2.6479983913
 H         -2.1394943906       -3.0368539496       -2.1768235307
 H          0.3676317794       -3.9692185205       -0.6361044113
