  62
        -98.94479201
 C          1.8579372272        0.7457209911        0.4138220487
 C          2.4598447223        0.1452692754       -0.7186485335
 C          3.5184041913       -0.8317232676       -0.4312938272
 C          3.8223895514       -1.1364856775        0.8433020142
 C          4.8585882409       -2.1300067219        1.2942645241
 C          6.2847626117       -1.5650900781        1.3457689999
 C          6.9411719675       -1.3292115293       -0.0151011581
 H          8.0013545689       -1.1442388186        0.1689245003
 H          6.8688315705       -2.2374286083       -0.6143191131
 C          6.3625230742       -0.1440180007       -0.8005750031
 H          5.7939561923        0.4984135196       -0.1242789360
 H          7.1792779802        0.4589972751       -1.2035072046
 C          5.4682797494       -0.5385838090       -1.9760789792
 H          6.0599244291       -1.0699521922       -2.7248518745
 H          5.0842519771        0.3750581973       -2.4367250036
 C          4.2687688644       -1.4142211521       -1.5905931324
 H          3.5840867244       -1.4543161713       -2.4415258703
 H          4.6002213632       -2.4268501269       -1.3610999729
 H          6.8972269897       -2.2787188354        1.9017434356
 H          6.2696900975       -0.6298887863        1.9102053280
 H          4.8354564509       -3.0048090199        0.6436227999
 H          4.5745356746       -2.4395824817        2.3025250730
 O          3.1823904667       -0.5740499407        1.9036843002
 C          2.2003219925        0.3862268056        1.7165555312
 O          1.7036883441        0.8263646167        2.7743490935
 O          2.1320908993        0.4057947065       -1.9045618080
 C          0.7729111566        1.7913640530        0.2294306593
 C         -0.4013320820        1.1918024056       -0.5067224896
 C         -1.0361730044        1.8124922653       -1.5739513940
 C         -2.1074075907        1.2016349279       -2.2042169224
 C         -2.5748054253       -0.0281606544       -1.7805485214
 C         -1.9606368023       -0.6471875886       -0.6983795226
 C         -0.8896181948       -0.0333818043       -0.0681718656
 H         -0.4105043586       -0.5196077951        0.7732311957
 N         -2.4392845325       -1.8869092284       -0.2441770458
 S         -4.0938703826       -2.1001761294       -0.1252702471
 O         -4.2738393776       -3.0839855104        0.9195285516
 O         -4.6326738023       -2.4507890379       -1.4158852067
 C         -4.7418930746       -0.5176696806        0.3852434800
 C         -5.6801987776        0.1253999073       -0.3959348073
 C         -6.1532806632        1.3639800555        0.0072006385
 C         -5.6787835596        1.9368047729        1.1766810138
 C         -4.7383036573        1.2765519996        1.9528192248
 C         -4.2641047747        0.0368916657        1.5561615509
 H         -3.5349143396       -0.5011231036        2.1410425100
 H         -4.3688407212        1.7227679371        2.8622570213
 H         -6.0429543982        2.9032111954        1.4875271068
 H         -6.8859022283        1.8786659011       -0.5931007903
 H         -6.0179022538       -0.3546553068       -1.2999299594
 H         -1.9595292613       -2.2434275618        0.5685562048
 H         -3.3943490064       -0.5247962113       -2.2741132289
 H         -2.5828649320        1.6893391727       -3.0412355216
 H         -0.6861186260        2.7703214397       -1.9211847066
 H          0.4357811490        2.0598190350        1.2414368431
 C          1.3430843317        3.0255572663       -0.4375536278
 C          0.7525699245        4.3745627079       -0.1613381472
 C          2.0949880931        4.0151999228        0.3991009640
 H          2.9738452604        4.4825761675       -0.0192152803
 H          2.1722917549        3.8119006264        1.4576521478
 H          0.7113610308        5.0941419251       -0.9649717036
 H         -0.0824767236        4.4249630219        0.5207305328
 H          1.7215614227        2.8231795692       -1.4327362971
