  62
        -98.93908358
 C          0.8067515230        1.3880915500        0.6523148763
 C          1.1549074958        0.6768025632       -0.5190409475
 C          2.1783418299       -0.3816336968       -0.3729476470
 C          2.6016292947       -0.7116508964        0.8601928174
 C          3.6481365601       -1.7190957628        1.2606881958
 C          5.0779181116       -1.2197638968        1.0054032891
 C          5.2971576401       -0.5957204106       -0.3697714270
 H          4.6379705074        0.2669484878       -0.4799247074
 H          6.3246119587       -0.2239404750       -0.4041298597
 C          5.1011396649       -1.5419747722       -1.5525919593
 H          5.4216783551       -1.0053538414       -2.4490601585
 H          5.7578926863       -2.4061864370       -1.4323393047
 C          3.6709696147       -2.0385590676       -1.7862713483
 H          3.6309972503       -2.4434671638       -2.8012847338
 H          3.4230515091       -2.8564995423       -1.1156348947
 C          2.6049440531       -0.9513645205       -1.7034393637
 H          2.9152987030       -0.0987720757       -2.3185668317
 H          1.6823881140       -1.3170483146       -2.1677977830
 H          5.7636517618       -2.0579392605        1.1419125076
 H          5.3153029014       -0.4646026167        1.7591208124
 H          3.5252403110       -1.8871177813        2.3333147515
 H          3.4822911854       -2.6647989546        0.7536452942
 O          2.1109619369       -0.1021073621        1.9800339726
 C          1.2457199485        0.9709256463        1.9098642535
 O          0.9327259188        1.4529784873        3.0182181498
 H         -1.9432439579        0.7285260324        1.0525320091
 C         -2.1630622100        1.2732333564        0.1452105711
 C         -1.3174866547        2.3013321875       -0.2538274389
 C         -1.6225918536        3.0052066566       -1.4111727450
 C         -2.7435324385        2.6758228630       -2.1521524916
 C         -3.5792832319        1.6478657928       -1.7572231695
 C         -3.2856913723        0.9420602087       -0.5952793459
 N         -4.1330904479       -0.0834255560       -0.1553068104
 S         -3.5995601137       -1.3268800873        0.8075520372
 O         -4.6459121719       -2.3224799234        0.7008576012
 O         -3.3244531935       -0.8517568248        2.1409653917
 C         -2.1177961233       -1.9843611158        0.0644842934
 C         -1.0113959727       -2.2149629255        0.8547604704
 C          0.0921557493       -2.8423922355        0.2999249963
 C          0.0746212013       -3.2160763481       -1.0343183197
 C         -1.0365136112       -2.9578821309       -1.8219106373
 C         -2.1472719080       -2.3437370463       -1.2682910013
 H         -3.0334715572       -2.1523854210       -1.8508811944
 H         -1.0426446520       -3.2405717050       -2.8623622536
 H          0.9301964919       -3.7152906572       -1.4608055637
 H          0.9550644326       -3.0386528901        0.9154953268
 H         -1.0324322172       -1.9032106862        1.8880783688
 H         -4.8571703474       -0.3643994738       -0.7984356550
 H         -4.4526484337        1.3917403001       -2.3369957484
 H         -2.9665720027        3.2240899623       -3.0547854136
 H         -0.9699263129        3.7940188089       -1.7464882285
 C         -0.1195392915        2.5903643876        0.6152359731
 H         -0.4815394671        2.7019535378        1.6513180792
 C          0.5821381182        3.8928862676        0.2567850928
 C          2.0175831180        4.1195030937        0.6242392799
 C          1.6262867589        3.9753563493       -0.8142054667
 H          1.6493240571        4.8555005457       -1.4399921979
 H          1.8850267207        3.0649774178       -1.3308578205
 H          2.3063063337        5.0946618202        0.9867640704
 H          2.5462390618        3.3049979039        1.0984079794
 H         -0.0789650073        4.7478222968        0.3613223350
 O          0.6674480455        0.9125370807       -1.6536886175
