  62
        -98.94024932
 C          2.6304733172        1.3175259223       -0.0449850910
 C          2.5052334308        0.1753120510       -0.8714160550
 C          3.7426405185       -0.5848597926       -1.1009219499
 C          4.8928175177       -0.1567202283       -0.5489898502
 C          6.2127585401       -0.8625401348       -0.6584354812
 C          6.4152217033       -1.8429616919        0.5052462767
 C          5.2236672831       -2.7701953178        0.7453731260
 H          5.4912289474       -3.4381574742        1.5670237497
 H          4.3694533975       -2.1768228301        1.0802011451
 C          4.8113500767       -3.6030244486       -0.4764401539
 H          4.6332274688       -4.6313668670       -0.1549931981
 H          5.6261225849       -3.6264643123       -1.2010208630
 C          3.5326111473       -3.1259682721       -1.1679642535
 H          3.2159259179       -3.9024842838       -1.8695860355
 H          2.7351220017       -3.0111904819       -0.4286716036
 C          3.6490083529       -1.8159359969       -1.9575846559
 H          4.4953140192       -1.8744521271       -2.6450848264
 H          2.7337465502       -1.7019607389       -2.5459229921
 H          6.5896121573       -1.2670535948        1.4170289330
 H          7.3071386256       -2.4390051770        0.3039369601
 H          6.2576306231       -1.3935902611       -1.6071008659
 H          7.0060487937       -0.1136324105       -0.6327647341
 O          4.9758284283        0.9571022753        0.2227061273
 C          3.8492720720        1.7108850034        0.5072892979
 O          4.0583709024        2.6910350380        1.2503941926
 H         -1.2538983011        1.7956588080       -0.3741066747
 C         -0.9489994504        1.2233778681        0.4879630952
 C          0.3587403299        1.2969449304        0.9370179532
 C          0.7230112898        0.5416045069        2.0491099248
 C         -0.1963447763       -0.2702456462        2.6836182413
 C         -1.5027003548       -0.3425481406        2.2309112904
 C         -1.8780772132        0.4081250830        1.1263742243
 N         -3.2096756364        0.3784001139        0.6727265024
 S         -4.0399845383       -1.0913137860        0.6692445415
 O         -4.4252412586       -1.4030104079        2.0231222539
 O         -3.2743381451       -2.1063110698       -0.0195024163
 C         -5.4809752901       -0.6415276330       -0.2775044802
 C         -5.4957611199       -0.8746140594       -1.6396016641
 C         -6.6096403135       -0.4952452659       -2.3721279359
 C         -7.6817272240        0.1105639112       -1.7341918492
 C         -7.6520316121        0.3376593381       -0.3662279779
 C         -6.5421054749       -0.0403050414        0.3723229593
 H         -6.4773123222        0.1076483675        1.4375043631
 H         -8.4887836319        0.8064685370        0.1259578236
 H         -8.5469858540        0.4046194839       -2.3070837158
 H         -6.6366283077       -0.6731523340       -3.4351785449
 H         -4.6436234043       -1.3563378507       -2.0924361902
 H         -3.3130134371        0.8434754979       -0.2192983943
 H         -2.2266009660       -0.9788897993        2.7132510715
 H          0.1036890968       -0.8557439971        3.5402564063
 H          1.7439647655        0.5950861082        2.4040122935
 C          1.4072066228        2.1581312240        0.2746646006
 H          1.7378962767        2.9102294691        1.0056550181
 C          0.9242152771        2.8707175043       -0.9711760640
 C          0.1637967649        4.1570111636       -0.8569440903
 C          1.5748584173        4.1625473513       -1.3612135683
 H          1.7493670438        4.3560251484       -2.4089760620
 H          2.3519709186        4.5406423253       -0.7129054807
 H         -0.6303475324        4.3526270191       -1.5617330813
 H         -0.0210356494        4.5408457913        0.1348723679
 H          0.6601211103        2.1844675871       -1.7678436849
 O          1.4193875710       -0.1901138707       -1.3943571433
