  62
        -98.94022852
 C         -2.4770559709       -1.0953933311        0.0769360903
 C         -2.7176348340       -0.0275958390       -0.8207008631
 C         -4.1251563780        0.3669387810       -0.9795067084
 C         -5.0782655168       -0.3012522446       -0.3042878247
 C         -6.5417419186        0.0305690287       -0.3313328495
 C         -6.9087603991        1.0131367610        0.7897286060
 C         -5.9878782019        2.2307520631        0.8694816629
 H         -6.3595976947        2.8673909434        1.6752826676
 H         -4.9859408561        1.9024712234        1.1555997236
 C         -5.9003933148        3.0464706171       -0.4279306110
 H         -6.7433162976        2.8034751270       -1.0758008771
 H         -5.9767186262        4.1072769502       -0.1803712316
 C         -4.5954142966        2.8635149913       -1.2052198158
 H         -3.7442845297        3.0126469861       -0.5357736252
 H         -4.5461808269        3.6388058355       -1.9744381106
 C         -4.4216487863        1.5110070668       -1.9077564938
 H         -3.5545484935        1.5896350085       -2.5701042097
 H         -5.3017840464        1.2960958761       -2.5171544795
 H         -6.8592972408        0.4833969471        1.7438662559
 H         -7.9380779924        1.3423806667        0.6367644561
 H         -6.7942512183        0.4569322386       -1.3000985775
 H         -7.1059060574       -0.8930884636       -0.1921033762
 O         -4.8083416027       -1.3377338972        0.5307340404
 C         -3.5055549465       -1.7519829320        0.7518170669
 O         -3.3946310216       -2.6966646978        1.5598508701
 O         -1.8072390929        0.5671368301       -1.4548926121
 C         -1.0571199404       -1.5707182798        0.3197671009
 C         -0.1873199640       -0.4332688208        0.7981592814
 C         -0.6647414978        0.4146694200        1.7947598992
 C          0.1110599624        1.4532826584        2.2709754578
 C          1.3889172724        1.6575169542        1.7803290716
 C          1.8773412592        0.8146320212        0.7900038987
 C          1.0895332427       -0.2204689493        0.3043084629
 H          1.4963038188       -0.8571145935       -0.4632435310
 N          3.1628093917        1.0031617743        0.2573055584
 S          4.0604966882       -0.3614791717       -0.1711426206
 O          3.6899340290       -0.7709181564       -1.5021802551
 O          3.9531771445       -1.3676646659        0.8612191532
 C          5.7052516820        0.3287243892       -0.1921466023
 C          6.1173817585        1.0306197085       -1.3093371702
 C          7.3841782971        1.5923649119       -1.3175107754
 C          8.2131440602        1.4441754904       -0.2152448420
 C          7.7865717510        0.7353860938        0.8977535745
 C          6.5201748690        0.1721929747        0.9131875342
 H          6.1492104987       -0.3946643066        1.7519548323
 H          8.4345918780        0.6187533071        1.7514432391
 H          9.1991145280        1.8812905994       -0.2250960356
 H          7.7203411205        2.1417740662       -2.1820191887
 H          5.4423757994        1.1113891190       -2.1454659030
 H          3.7155254925        1.6633266759        0.7868664475
 H          1.9978901173        2.4656867530        2.1560788146
 H         -0.2778238541        2.1050712379        3.0391198822
 H         -1.6585999315        0.2474672962        2.1888098261
 H         -1.1165211022       -2.3131281741        1.1304093516
 C         -0.5197007082       -2.2532178788       -0.9211557015
 C          0.5115606670       -3.3336957497       -0.8044724787
 C         -0.8945055096       -3.6779909440       -1.1918632671
 H         -1.0915492059       -3.9750764841       -2.2109200459
 H         -1.5202356472       -4.1716684010       -0.4623379057
 H          1.2864801516       -3.3879284250       -1.5550593539
 H          0.8486288387       -3.5987531622        0.1868049532
 H         -0.4577413105       -1.5815722988       -1.7705576582
