  62
        -98.94103741
 C         -2.1926314237       -1.2654897787        0.2489253468
 C         -1.6708318831       -0.2866285429       -0.6338854605
 C         -2.4043381584        0.9879922164       -0.6687809087
 C         -3.5219441368        1.1471909487        0.0621834243
 C         -4.4058416647        2.3649315019        0.0812236456
 C         -3.9495486467        3.4542779333        1.0610126335
 C         -2.6916157020        4.2149987672        0.6409833141
 H         -2.8213428067        4.5975949438       -0.3717063934
 H         -2.5991380545        5.0759515432        1.3059517206
 C         -1.4006634816        3.3876660025        0.7191186057
 H         -1.5729640891        2.5064933165        1.3423777403
 H         -0.6199260167        3.9749284377        1.2085873961
 C         -0.8497569101        2.9417290928       -0.6356663386
 H          0.0445534172        2.3379507668       -0.4604204255
 H         -0.5559884280        3.8205008269       -1.2128925683
 C         -1.8222141867        2.1062331939       -1.4788715470
 H         -2.6116102431        2.7385672018       -1.8841087998
 H         -1.2626295727        1.6633996176       -2.3060046712
 H         -3.7904335827        2.9985397562        2.0413176865
 H         -4.7681481399        4.1710630496        1.1579006210
 H         -5.3976567933        2.0232535767        0.3855935298
 H         -4.4753013153        2.7831246355       -0.9231890353
 O         -4.0018590990        0.1743604213        0.8824445478
 C         -3.3280460774       -1.0276453770        1.0285163765
 O         -3.8319773158       -1.7953797746        1.8730517633
 O         -0.6520564600       -0.4473795450       -1.3529059974
 C         -1.5426387806       -2.6251264738        0.4251164767
 C         -0.0363044829       -2.5290813788        0.5097046971
 C          0.8051473749       -3.5023520811       -0.0158727757
 C          2.1780911397       -3.4004928835        0.1269008079
 C          2.7464410147       -2.3170744213        0.7690272565
 C          1.9177386902       -1.3202681944        1.2698890713
 C          0.5410301601       -1.4498027987        1.1672265569
 H         -0.0971286745       -0.6820518762        1.5878407976
 N          2.4779996087       -0.1925995616        1.8969550523
 S          3.7461972055        0.6302217846        1.1784796991
 O          4.9152192942       -0.2140040432        1.1851903198
 O          3.8492975705        1.8647099454        1.9236516821
 C          3.2637004447        0.9800125502       -0.5025198977
 C          2.7475100085        2.2274095498       -0.7903276122
 C          2.3558441398        2.5096232932       -2.0889947265
 C          2.4694364857        1.5377171522       -3.0699026811
 C          2.9895384852        0.2899643679       -2.7652632826
 C          3.3981021264        0.0066151090       -1.4724590656
 H          3.8199254944       -0.9485407151       -1.2096067357
 H          3.0769750534       -0.4655632820       -3.5292964746
 H          2.1525337075        1.7543047409       -4.0779437107
 H          1.9570314899        3.4822129232       -2.3287498549
 H          2.6759636780        2.9551125773        0.0025764529
 H          1.7903538918        0.4658556332        2.2320004574
 H          3.8139629239       -2.2215442726        0.8855216037
 H          2.8150457851       -4.1749013627       -0.2729879447
 H          0.3906923153       -4.3454687206       -0.5425455009
 H         -1.9009936255       -2.9839892129        1.4051542397
 C         -2.0058868556       -3.6494009101       -0.6070243825
 C         -3.1836830786       -3.3974634190       -1.4995587215
 C         -1.8006343588       -3.4160016608       -2.0730960099
 H         -1.5136372483       -4.2504272652       -2.6958387238
 H         -1.3554156514       -2.4760154817       -2.3594864887
 H         -3.8441122362       -4.2253595861       -1.7115779153
 H         -3.6922854706       -2.4478800965       -1.4157778651
 H         -1.8987912308       -4.6698825766       -0.2535731157
