  62
        -98.94275812
 C          2.0445821535       -0.4061341574        0.9041278796
 C          2.8540878658        0.7534028970        0.8187190085
 C          4.2750663507        0.5249172749        0.5123364700
 C          4.7266315083       -0.7295847582        0.3397611448
 C          6.1320313145       -1.0940761890       -0.0392998781
 C          6.2896906778       -1.1848408810       -1.5637087238
 C          5.7264602008        0.0207595997       -2.3163811907
 H          5.9214057511       -0.1400271354       -3.3789655140
 H          4.6415805759        0.0446753953       -2.1895840555
 C          6.3173708202        1.3707746513       -1.8863614642
 H          7.2541017342        1.2112926809       -1.3510916739
 H          6.5505262489        1.9514617371       -2.7813669879
 C          5.3837203282        2.2278498762       -1.0297632730
 H          4.4112594371        2.3119408111       -1.5211872711
 H          5.8074864983        3.2336953969       -0.9676998605
 C          5.1577437980        1.7369849990        0.4057906108
 H          6.1197307642        1.5566853804        0.8893411285
 H          4.6419936322        2.5325801675        0.9511098705
 H          7.3505369140       -1.2976274302       -1.7947640242
 H          5.7688989269       -2.0797062811       -1.9126072789
 H          6.8164672386       -0.3501428031        0.3637108083
 H          6.3658328255       -2.0654607456        0.3997657187
 O          3.9260264078       -1.8207860762        0.4453308900
 C          2.5776001023       -1.6866118404        0.7223414733
 O          1.9625326354       -2.7708352223        0.7893293034
 H         -1.5744082023       -1.7428216387        0.2901282898
 C         -1.3579077752       -0.8743715467       -0.3133866600
 C         -0.2831766281       -0.0548889395        0.0002154646
 C         -0.0345548065        1.0559303048       -0.7995060888
 C         -0.8350208886        1.3250564213       -1.8944540538
 C         -1.9162237925        0.5144994752       -2.1942093443
 C         -2.1826993791       -0.5877072326       -1.3924070667
 N         -3.2986483289       -1.4158713690       -1.6355417377
 S         -4.4600631850       -1.4695907348       -0.4272925742
 O         -3.9013031649       -2.0598717122        0.7607707342
 O         -5.5914205878       -2.1494760879       -1.0165359712
 C         -4.8591546255        0.2466147440       -0.1443863490
 C         -5.9245438585        0.8027171953       -0.8255147547
 C         -6.1834598670        2.1556878809       -0.6771920313
 C         -5.3671320404        2.9287840481        0.1345795928
 C         -4.2996174455        2.3560587623        0.8087370591
 C         -4.0397939170        1.0014925272        0.6717869067
 H         -3.2184611489        0.5270929044        1.1835780489
 H         -3.6615922124        2.9567855272        1.4368528091
 H         -5.5629463416        3.9838392659        0.2435361680
 H         -7.0150079286        2.6029641000       -1.1975838518
 H         -6.5321931942        0.1635771893       -1.4457247900
 H         -3.7491583382       -1.2361029066       -2.5225150933
 H         -2.5486507181        0.7320816710       -3.0418006131
 H         -0.6237588778        2.1840339092       -2.5128964038
 H          0.7897387375        1.7064598487       -0.5525064551
 C          0.5575722291       -0.3683731564        1.2151588970
 H          0.2988543524       -1.3861804109        1.5385779789
 C          0.2020112912        0.5883328120        2.3390120119
 C         -1.0420356363        0.3386473292        3.1354356399
 C          0.3046366526        0.1199341503        3.7573444294
 H          0.6486270757        0.8167353657        4.5067422877
 H          0.6295840989       -0.8970240926        3.9253003449
 H         -1.6328938734       -0.5330085388        2.8905023372
 H         -1.6241433201        1.1864021211        3.4637813451
 H          0.4751385236        1.6142751330        2.1301444246
 O          2.4360497939        1.9305466757        0.9783810480
