  62
        -98.93691205
 C         -2.3261051824       -0.6325498624       -0.0295181105
 C         -2.4347586734        0.4296694895        0.8935765925
 C         -2.2301015624        1.7909200157        0.3674904185
 C         -1.9292580715        1.9464947598       -0.9344946416
 C         -1.6560299425        3.2223126750       -1.6904492561
 C         -0.7035418331        4.2190556721       -1.0114467443
 C         -1.4008144413        5.4936357422       -0.5326511450
 H         -0.6587960319        6.2919024684       -0.4627322325
 H         -2.1322847192        5.7917828246       -1.2864787169
 C         -2.0906275582        5.3837712493        0.8257551201
 H         -1.3333223819        5.3305258618        1.6109475464
 H         -2.6595671817        6.3031043472        0.9827691444
 C         -3.0341662320        4.1901225209        0.9879709829
 H         -3.6121745485        4.0308218564        0.0787623296
 H         -3.7451595322        4.4338774516        1.7802015019
 C         -2.3215918228        2.8905957377        1.3906346118
 H         -1.3105430880        3.1101008705        1.7492632557
 H         -2.8431249445        2.4333624110        2.2378625637
 H         -0.1876745408        3.7292468555       -0.1856244339
 H          0.0581489629        4.5018018552       -1.7400812361
 H         -1.2355506764        2.8987725228       -2.6451564387
 H         -2.6081934045        3.7097954302       -1.9138307753
 O         -1.8545739114        0.8917673024       -1.7958972594
 C         -2.0153297229       -0.4134149190       -1.3707230618
 O         -1.8781071794       -1.2694253274       -2.2662648009
 O         -2.6907099480        0.2493572806        2.1172987664
 C         -2.4271666837       -2.0627117694        0.4687516203
 C         -1.1117162086       -2.7602110672        0.2179220845
 C         -1.0062118721       -4.0490331175       -0.2881602140
 C          0.2385496451       -4.6018164964       -0.5377593845
 C          1.3957302636       -3.8823196831       -0.3049815370
 C          1.3003886174       -2.5986001882        0.2216547434
 C          0.0556977738       -2.0619004778        0.5002031264
 H         -0.0037855756       -1.0633226019        0.9099376831
 N          2.4507170493       -1.8351291334        0.4915760508
 S          2.3543125107       -0.1637229601        0.2570079872
 O          1.8001767997        0.4401830287        1.4443619889
 O          1.6886654756        0.1374070330       -0.9899706354
 C          4.0901056173        0.2333326393        0.1476682603
 C          4.8301814095        0.2855296162        1.3140993303
 C          6.1870804974        0.5554454497        1.2348538271
 C          6.7783251325        0.7674477148       -0.0019811272
 C          6.0224629286        0.7145181355       -1.1633745234
 C          4.6649371517        0.4425694491       -1.0913499458
 H          4.0348219334        0.3963085414       -1.9653184527
 H          6.4833361254        0.8830743524       -2.1232456812
 H          7.8344434671        0.9778325214       -0.0610400667
 H          6.7771817681        0.5997895817        2.1358735390
 H          4.3242105305        0.1232689141        2.2514383932
 H          3.2813457214       -2.2174758399        0.0594753011
 H          2.3634553293       -4.3052796441       -0.5278442493
 H          0.3068065569       -5.6015725790       -0.9391503014
 H         -1.8980666998       -4.6148774285       -0.5021792795
 H         -2.5774140341       -1.9859719983        1.5564610756
 C         -3.6165653405       -2.7718961370       -0.1427283423
 C         -4.3099935414       -3.8695122075        0.6064825024
 C         -4.9768581194       -2.5382529337        0.4406574241
 H         -5.8185396468       -2.4598685171       -0.2307959475
 H         -5.0403562445       -1.8851179936        1.2987839956
 H         -4.6987895397       -4.7080316072        0.0487582497
 H         -3.9285371724       -4.1254062357        1.5833689655
 H         -3.5402241259       -2.8515640563       -1.2213187179
