  62
        -98.93536715
 C         -2.2244111025       -0.9213970492        0.2386898630
 C         -1.9903807628        0.0762872731       -0.7367514568
 C         -2.0369216050        1.4819304808       -0.2792352703
 C         -2.3443149714        1.7442427364        1.0032520476
 C         -2.4906246325        3.0841675233        1.6744842397
 C         -3.7937520875        3.8054961530        1.2914723548
 C         -4.1530790459        3.7461594486       -0.1908986859
 H         -4.2201513849        2.7019139931       -0.5012841114
 H         -5.1468922889        4.1856693970       -0.3095524376
 C         -3.1992021651        4.4904145005       -1.1219432258
 H         -3.6158803552        4.4297495952       -2.1304186377
 H         -3.1690085094        5.5443327911       -0.8366774900
 C         -1.7644605063        3.9605618755       -1.1698974331
 H         -1.2018023817        4.2664645606       -0.2917956122
 H         -1.2720418166        4.4245859774       -2.0296930293
 C         -1.6467504699        2.4525560211       -1.3675103168
 H         -2.2195672774        2.1602028612       -2.2552697676
 H         -0.6015794640        2.2091343231       -1.6041623470
 H         -4.6104290542        3.3412734619        1.8493570084
 H         -3.7167115579        4.8467622442        1.6085099746
 H         -2.5002253284        2.8942709590        2.7501662253
 H         -1.6232089875        3.7010211251        1.4575297534
 O         -2.6256290388        0.7520600493        1.8966472322
 C         -2.5250964490       -0.5803395387        1.5588802003
 O         -2.7455983539       -1.3670307767        2.5043793323
 H          0.1939248937       -1.0811469058       -0.7897139845
 C          0.4101066168       -2.0003091460       -0.2686428356
 C         -0.6179980921       -2.8154687401        0.1783929515
 C         -0.2903732735       -4.0013688026        0.8265522297
 C          1.0323600630       -4.3489414676        1.0342785008
 C          2.0537272548       -3.5088134892        0.6279622215
 C          1.7360319983       -2.3240289546       -0.0252250106
 N          2.7316886842       -1.4279997511       -0.4476554750
 S          2.4099572446        0.2218208787       -0.2384056721
 O          1.6717087162        0.4281364858        0.9876872170
 O          1.8215539332        0.7460168608       -1.4442762363
 C          4.0727097859        0.8488076557       -0.0716320162
 C          4.7865008092        1.1657995126       -1.2118847732
 C          6.0931007235        1.6097309862       -1.0827256799
 C          6.6616974485        1.7270045620        0.1768858657
 C          5.9323463844        1.4073786366        1.3124422531
 C          4.6255414325        0.9617397206        1.1901844755
 H          4.0167018076        0.7103845500        2.0440752203
 H          6.3752086994        1.5029851350        2.2906824239
 H          7.6786803744        2.0723417085        0.2747657787
 H          6.6615459136        1.8620836117       -1.9632264246
 H          4.2985121473        1.0658847774       -2.1674405780
 H          3.6529630572       -1.6729352569       -0.1101236361
 H          3.0853395155       -3.7641864985        0.8168944481
 H          1.2710081042       -5.2721056363        1.5400917428
 H         -1.0813106553       -4.6420152690        1.1869190275
 C         -2.0623203712       -2.4103035679       -0.0172477431
 H         -2.6547710066       -2.9157900980        0.7589725147
 C         -2.5583667974       -2.8724736014       -1.3735580242
 C         -3.0211931377       -4.2869735149       -1.5444931396
 C         -4.0149550757       -3.1653946260       -1.5639008770
 H         -4.4747462029       -2.8918620914       -2.5013854045
 H         -4.6628071030       -3.0430774467       -0.7078002652
 H         -2.7959715017       -4.7904906299       -2.4718876800
 H         -3.0055818700       -4.9307193290       -0.6784353801
 H         -2.0323687162       -2.4088823669       -2.1977316014
 O         -1.7483714162       -0.1617067875       -1.9511120173
