  62
        -98.93793244
 C          0.7394308057        1.7825514697       -0.3664433519
 C          1.1524337207        0.4748377202       -0.7163092678
 C          2.3527246759       -0.0407581324       -0.0252786633
 C          2.9296352189        0.6872083919        0.9464464610
 C          4.0922973691        0.3793517720        1.8676080122
 C          5.0559820807       -0.7626827999        1.5549372471
 C          5.9113075070       -0.5545837437        0.3059275723
 H          6.6164440510        0.2577351510        0.4990369397
 H          6.4906068641       -1.4644947146        0.1345583575
 C          5.1418073257       -0.2072628310       -0.9658186467
 H          5.8681728637       -0.0958650369       -1.7753956070
 H          4.6471438483        0.7582974475       -0.8420072950
 C          4.1082513089       -1.2421797530       -1.4062340698
 H          4.5821052507       -2.2225150125       -1.4831693564
 H          3.7640308783       -0.9567490822       -2.4035849362
 C          2.8642515068       -1.3674639243       -0.5078623099
 H          2.0573776043       -1.8001989570       -1.1056778084
 H          3.0445990073       -2.0357778554        0.3315544994
 H          5.7325607252       -0.8404849777        2.4105576972
 H          4.5161779611       -1.7032380215        1.4952954216
 H          4.6584553757        1.3123401797        1.9550777074
 H          3.6454803359        0.1960921723        2.8517159228
 O          2.4491496404        1.9156873701        1.3025208432
 C          1.3716587340        2.4906000023        0.6559135548
 O          1.0763946778        3.6308358737        1.0712764831
 H         -1.3031907650        0.1015875272       -0.0758168936
 C         -1.9668656174        0.8969216755        0.2212713838
 C         -1.6925086064        2.1983559309       -0.1734554852
 C         -2.5585991306        3.2124284674        0.2167486512
 C         -3.6662789053        2.9259909443        0.9956909360
 C         -3.9207102004        1.6313300407        1.4115465866
 C         -3.0592199654        0.6106118406        1.0245848499
 N         -3.2848774796       -0.7176425439        1.4092681114
 S         -1.9948996963       -1.7600592626        1.6316092644
 O         -2.5380117096       -2.8240639571        2.4535426174
 O         -0.8410924926       -1.0827338252        2.1803646296
 C         -1.6393042707       -2.4245789993        0.0195593780
 C         -0.4196173341       -3.0441048688       -0.1589804069
 C         -0.1292870366       -3.6160302427       -1.3865964395
 C         -1.0584015439       -3.5533411580       -2.4121751422
 C         -2.2788685109       -2.9272468619       -2.2168555200
 C         -2.5792272585       -2.3613378936       -0.9884883534
 H         -3.5175234680       -1.8626165320       -0.8095764511
 H         -2.9972546749       -2.8728545031       -3.0191084661
 H         -0.8259355759       -3.9895274944       -3.3709287379
 H          0.8224477182       -4.0998112260       -1.5399832795
 H          0.2824283952       -3.0508010013        0.6602819956
 H         -4.0213558317       -0.8632606414        2.0834878054
 H         -4.7731900419        1.4109641748        2.0356658438
 H         -4.3310996801        3.7215804697        1.2960731096
 H         -2.3475816802        4.2308572254       -0.0746745024
 C         -0.4583362509        2.4830380372       -0.9897117996
 H         -0.2460915990        3.5610258129       -0.9009429705
 C         -0.6399673289        2.1754264265       -2.4690160151
 C         -1.7102070154        1.2746148720       -2.9994386981
 C         -1.8060765248        2.7531628660       -3.2158468555
 H         -1.6405493683        3.1458377733       -4.2076192690
 H         -2.5433422960        3.2946740922       -2.6424820648
 H         -2.3832340701        0.8146453655       -2.2933555366
 H         -1.4557991319        0.6380872544       -3.8324698606
 H          0.3102833632        2.1515257651       -2.9923359583
 O          0.5671305861       -0.2509739298       -1.5590453877
