  62
        -98.93742792
 C         -2.4571990955       -1.1293224880        0.2472376520
 C         -3.1115780184       -0.2786593705        1.1753974851
 C         -4.4513042811        0.1853020011        0.8036496696
 C         -4.9955888642       -0.2209790442       -0.3576013792
 C         -6.3672560953        0.1319552645       -0.8654596141
 C         -6.4384176525        1.4824747046       -1.5910516343
 C         -6.3309699619        2.7120130496       -0.6883296931
 H         -6.6130665208        3.5775751135       -1.2910206428
 H         -7.0552414985        2.6304879339        0.1227636126
 C         -4.9297957765        2.9505655409       -0.1082825282
 H         -4.6641594533        4.0043289220       -0.2184740969
 H         -4.1960462733        2.3750991287       -0.6774691574
 C         -4.7884960167        2.6014274570        1.3733668968
 H         -3.7495108746        2.7715876746        1.6675965120
 H         -5.4201039596        3.2647706608        1.9685614218
 C         -5.1456123745        1.1494290009        1.7172368183
 H         -4.8069930831        0.9443836486        2.7358926880
 H         -6.2251523256        1.0064178155        1.6720711759
 H         -5.6500926937        1.5151264634       -2.3464479981
 H         -7.3986491212        1.5224828963       -2.1104242906
 H         -7.0763672619        0.1249124435       -0.0371078307
 H         -6.6481818867       -0.6530538320       -1.5708567086
 O         -4.3430979796       -1.0439499300       -1.2175360555
 C         -3.0539031798       -1.4994528017       -0.9593619954
 O         -2.5872990971       -2.2084709084       -1.8678146236
 O         -2.5985794593        0.0650715571        2.2752069627
 C         -1.0752985069       -1.6178498841        0.6411577819
 C          0.0062932011       -0.7094873752        0.1178561247
 C          0.0741409795       -0.3514529758       -1.2250797897
 C          1.0990237139        0.4554886896       -1.6858671423
 C          2.0758335412        0.9195162322       -0.8209391580
 C          2.0090578147        0.5781230059        0.5220461993
 C          0.9786416254       -0.2281781960        0.9824627242
 H          0.9329523590       -0.4864159909        2.0325271833
 N          3.0300095942        1.0310934659        1.3970038127
 S          4.4098692559        0.0610715830        1.3313500379
 O          4.0542676156       -1.3358546627        1.2098767765
 O          5.1956454310        0.4195274484        2.4910633934
 C          5.2228502951        0.6148983391       -0.1488378715
 C          5.2131310038       -0.1875755566       -1.2724595518
 C          5.8321379732        0.2696452912       -2.4253622969
 C          6.4448098548        1.5136106106       -2.4330721941
 C          6.4470673556        2.3063693271       -1.2946589345
 C          5.8298730850        1.8556960707       -0.1388148797
 H          5.8111827904        2.4346080407        0.7695885975
 H          6.9258315639        3.2723137560       -1.3053059236
 H          6.9244386416        1.8670026876       -3.3322358017
 H          5.8312905693       -0.3445513684       -3.3114683484
 H          4.7218498115       -1.1459438068       -1.2205169630
 H          2.7220533437        1.0785727964        2.3595331259
 H          2.8746329715        1.5513229361       -1.1735270553
 H          1.1395148900        0.7232953536       -2.7306173337
 H         -0.6824001629       -0.7199807201       -1.9018447054
 H         -1.0607357219       -1.5401865695        1.7407058653
 C         -0.8246418462       -3.0801486989        0.2995227723
 C          0.0683676293       -3.5430829859       -0.8076173700
 C          0.4999591649       -3.7110432888        0.6164671428
 H          0.5117818379       -4.7026889400        1.0432616892
 H          1.2919439821       -3.0689987045        0.9761847827
 H         -0.2421155924       -4.4121759260       -1.3669305031
 H          0.5713014074       -2.8004356310       -1.4057928112
 H         -1.7054121844       -3.6876196607        0.4847469458
