  62
        -98.93513919
 C         -2.2581997777       -0.4718561246        0.2394178350
 C         -3.5209076998       -0.8963791908        0.7117771828
 C         -4.6523479942        0.0204613757        0.4888650037
 C         -4.4379078122        1.1902640734       -0.1421902370
 C         -5.3778926325        2.3314785634       -0.4718227056
 C         -6.8906596171        2.1526221447       -0.3723915741
 C         -7.4904764462        1.1947519254       -1.4013199585
 H         -8.5501829299        1.0656138869       -1.1708719582
 H         -7.4185924299        1.6572915855       -2.3889212227
 C         -6.8297835958       -0.1787702271       -1.4881181581
 H         -5.7925066411       -0.0675808990       -1.8108882767
 H         -7.3476698344       -0.7503087837       -2.2631663197
 C         -6.8637473770       -1.0030868771       -0.2028785089
 H         -7.8930676599       -1.0927805177        0.1495199832
 H         -6.5044580770       -2.0065368303       -0.4463273633
 C         -5.9957630940       -0.4684229196        0.9492027025
 H         -6.5149669515        0.3050268660        1.5098215351
 H         -5.8000528385       -1.2968130032        1.6362922367
 H         -7.3313839475        3.1384317024       -0.5441332487
 H         -7.1691254095        1.8550559982        0.6341604692
 H         -5.0824878815        3.1565385592        0.1857967263
 H         -5.1199784447        2.6435057598       -1.4889121661
 O         -3.1948028498        1.5603796033       -0.5733994650
 C         -2.0833407227        0.7518592113       -0.4025374421
 O         -1.0256768936        1.2302186620       -0.8569098411
 H          1.6274177156       -1.0673295663       -0.1672779024
 C          1.3364664302       -0.5889438099        0.7515711776
 C          0.0244305377       -0.6489256504        1.1933362494
 C         -0.3070632179       -0.0218177057        2.3921466219
 C          0.6458746351        0.6690282095        3.1137297927
 C          1.9485756401        0.7514354096        2.6538584585
 C          2.2950496131        0.1155930907        1.4680468741
 N          3.6298038938        0.1421809777        1.0184070389
 S          3.9918818848        0.3849275807       -0.6126665712
 O          3.5547196669        1.6976421257       -1.0367007211
 O          3.5184558065       -0.7349685645       -1.3836277414
 C          5.7729932562        0.3348201832       -0.5210682027
 C          6.3876174377       -0.8980674043       -0.4108101099
 C          7.7685714960       -0.9520408890       -0.3113270070
 C          8.5084538210        0.2212338793       -0.3228506322
 C          7.8780601529        1.4510583790       -0.4357171801
 C          6.4965924541        1.5117774967       -0.5345249186
 H          5.9643311980        2.4443801789       -0.6326498035
 H          8.4558120006        2.3612379431       -0.4473197305
 H          9.5833441672        0.1764554879       -0.2459802592
 H          8.2624514891       -1.9065106496       -0.2258754875
 H          5.7721560431       -1.7823727933       -0.4143552365
 H          4.1954950021        0.7731733973        1.5722815927
 H          2.6914125677        1.3020192918        3.2114881852
 H          0.3723759781        1.1562232142        4.0377756734
 H         -1.3284263211       -0.0766645115        2.7443964098
 C         -1.0556175497       -1.3765998964        0.4323396958
 H         -1.4133827990       -2.2113690697        1.0538873501
 C         -0.5932148271       -1.9270140510       -0.9000293363
 C          0.1027028153       -3.2522930371       -0.9690103980
 C         -1.2976927144       -3.1135410489       -1.4836330586
 H         -1.4632755175       -3.1412065963       -2.5502584950
 H         -2.1010511975       -3.5449782677       -0.9044333202
 H          0.2509965305       -3.7854485025       -0.0421548865
 H          0.9062425094       -3.3711599189       -1.6803275686
 H         -0.2737555460       -1.1480731374       -1.5851808808
 O         -3.6967648099       -1.9923482633        1.3090507861
