  62
        -98.94359148
 C         -2.5588371484       -0.0034425524        0.1456289391
 C         -2.4360748886        1.1364120067        0.9789909799
 C         -1.9677163820        2.3667745211        0.3340302666
 C         -1.6815569053        2.3607127696       -0.9801097292
 C         -1.1848245698        3.5298244202       -1.7861050159
 C          0.3357118070        3.7203080584       -1.7010896188
 C          0.8386194110        4.3077772822       -0.3817906743
 H          1.8731666017        4.6179375560       -0.5413222657
 H          0.2623294824        5.2009143603       -0.1364327199
 C          0.7988683794        3.3259644182        0.7974156893
 H          0.7265566288        2.3018037289        0.4216296213
 H          1.7382417928        3.3815060125        1.3537062228
 C         -0.3285184514        3.5714478499        1.8010386849
 H         -0.1681131080        4.5277094817        2.3052879257
 H         -0.2823081781        2.7796261653        2.5537489821
 C         -1.7383240369        3.5718929468        1.1955948348
 H         -1.9006985906        4.4847986261        0.6224684969
 H         -2.4610828270        3.5373371407        2.0149264367
 H          0.6296134736        4.3905209059       -2.5124128291
 H          0.8150440079        2.7523727272       -1.8694145203
 H         -1.4510567814        3.3265066359       -2.8255808320
 H         -1.6897346150        4.4422101501       -1.4672341136
 O         -1.8291971637        1.2543355508       -1.7522231643
 C         -2.2043171994        0.0359707177       -1.2049209242
 O         -2.2036941617       -0.9010649154       -2.0257583623
 O         -2.6996338813        1.1224212395        2.2129239084
 C         -2.8886823970       -1.3312605983        0.8095694198
 C         -1.8151408182       -2.3185327252        0.4242020658
 C         -2.0487485801       -3.5519272845       -0.1663413604
 C         -0.9845731752       -4.3438426277       -0.5650012211
 C          0.3205074759       -3.9166393511       -0.4073715257
 C          0.5635505416       -2.6878140225        0.1982307538
 C         -0.5004199138       -1.9216411428        0.6370873364
 H         -0.3046261375       -0.9678234735        1.1070118037
 N          1.8742200981       -2.2106382058        0.3831921313
 S          2.1077940390       -0.5363466986        0.3548335288
 O          1.8104680580       -0.0166140124        1.6665465252
 O          1.4036799773        0.0632579163       -0.7559694901
 C          3.8683755830       -0.4698370581        0.0804893560
 C          4.7109105778       -0.7279827167        1.1455609344
 C          6.0804410222       -0.7129051044        0.9352259784
 C          6.5822500158       -0.4409722646       -0.3291528431
 C          5.7247178838       -0.1807200259       -1.3873298723
 C          4.3534318942       -0.1962999910       -1.1839302185
 H          3.6476093806        0.0049679441       -1.9741304655
 H          6.1168631371        0.0337497700       -2.3683752570
 H          7.6485427730       -0.4291914358       -0.4904962431
 H          6.7501828584       -0.9121036046        1.7560933068
 H          4.2736372405       -0.9240705110        2.1105549127
 H          2.5509346434       -2.6926772614       -0.1927705065
 H          1.1448638086       -4.5205605744       -0.7550719496
 H         -1.1769838786       -5.2976647844       -1.0326581311
 H         -3.0597638389       -3.8785578574       -0.3466572806
 H         -2.7873226448       -1.1236396742        1.8890923476
 C         -4.3058103931       -1.8379913207        0.6003058454
 C         -5.4238980232       -0.8879857751        0.2935839312
 C         -4.9659949114       -1.8660212463       -0.7442861715
 H         -5.6110076574       -2.7007714108       -0.9772500169
 H         -4.3990017948       -1.5007820994       -1.5853509817
 H         -6.3795518742       -1.0475123407        0.7700436822
 H         -5.1681789896        0.1535071994        0.1606478011
 H         -4.5443626803       -2.6551762858        1.2745875177
