  62
        -98.93598852
 C          1.3669459875        1.2753299623        0.7027530411
 C          2.3063612110        1.0422632915       -0.3278623947
 C          2.9550980387       -0.2895252157       -0.3433469074
 C          2.5870394914       -1.2142945875        0.5599527399
 C          3.1310438824       -2.6056476631        0.7418756961
 C          4.5082762825       -2.6201988143        1.4289408404
 C          5.4754055365       -1.5338786742        0.9639202607
 H          5.0035281354       -0.5574750409        1.0885964246
 H          6.3473429540       -1.5602646860        1.6227326057
 C          5.9721375427       -1.6766869308       -0.4724250094
 H          6.6796738345       -0.8642102562       -0.6564393650
 H          6.5150595425       -2.6195688688       -0.5707854418
 C          4.8959932667       -1.6272848771       -1.5576217649
 H          5.4079500770       -1.5449827746       -2.5212545497
 H          4.3308933141       -2.5550586794       -1.5878077543
 C          3.9485981038       -0.4340994937       -1.4712807038
 H          4.5376905168        0.4903446401       -1.4717664478
 H          3.3531009094       -0.3984965914       -2.3926533133
 H          4.9598687637       -3.6019495454        1.2781123205
 H          4.3484518959       -2.4826682336        2.5009660863
 H          2.4187804561       -3.1400574517        1.3746137819
 H          3.1618796695       -3.1154642620       -0.2168422173
 O          1.6453718731       -0.9606709529        1.5116748392
 C          1.0076494320        0.2575308521        1.5895586983
 O          0.1439736775        0.3295737489        2.4892891867
 H         -0.3200026318        1.0280694798       -1.1764487445
 C         -1.1349676806        1.4669222953       -0.6201733721
 C         -0.8719792078        2.2892870790        0.4654112234
 C         -1.9443632281        2.8288776825        1.1660139758
 C         -3.2459251821        2.5518749647        0.7862593251
 C         -3.5026091530        1.6979502847       -0.2716071002
 C         -2.4364804603        1.1425175742       -0.9680277752
 N         -2.6340464464        0.2017014206       -2.0034597242
 S         -2.1148493133       -1.3530187748       -1.6339414364
 O         -0.6993974461       -1.3510124362       -1.3724039039
 O         -2.5656672617       -2.1744926899       -2.7367382950
 C         -3.0372293164       -1.7667083376       -0.1638146747
 C         -2.5791381638       -1.3413434159        1.0670007553
 C         -3.3554533230       -1.5887574760        2.1890698924
 C         -4.5674252576       -2.2494693236        2.0631971818
 C         -5.0121389172       -2.6726950391        0.8193249741
 C         -4.2445877285       -2.4242784835       -0.3065876304
 H         -4.5473521689       -2.7362668982       -1.2932466543
 H         -5.9533421877       -3.1896339768        0.7238091057
 H         -5.1665404512       -2.4359575347        2.9404518517
 H         -2.9988522721       -1.2548033899        3.1503565306
 H         -1.6314539618       -0.8312870776        1.1459509212
 H         -3.5900215823        0.1570492792       -2.3316140429
 H         -4.5164073575        1.4511931800       -0.5488229502
 H         -4.0687601414        2.9819837868        1.3360351199
 H         -1.7531774215        3.4513607513        2.0275798488
 C          0.5558235948        2.5527058620        0.8771929284
 H          0.5441587352        2.7591113609        1.9611958622
 C          1.1438849743        3.7745008231        0.1906274663
 C          0.6455423831        4.2794268414       -1.1264261530
 C          0.3719268224        5.0589933273        0.1227719299
 H          0.9058244990        5.9837831062        0.2801796977
 H         -0.6405983341        5.0620188115        0.4955301198
 H          1.3757336762        4.6487207027       -1.8297782806
 H         -0.1742946819        3.7525760546       -1.5911225761
 H          2.2107284122        3.8594964284        0.3625523508
 O          2.6268735343        1.8843774368       -1.2063692564
