  62
        -98.94416860
 C          2.2513333675        0.8674800307        0.4032521985
 C          2.4491460873        0.0022165370       -0.7002776026
 C          3.2955075432       -1.1701847433       -0.4432604683
 C          3.7862514191       -1.3853724833        0.7907759220
 C          4.6447232583       -2.5470875209        1.2125098719
 C          6.1389420670       -2.3595363438        0.9154929770
 C          6.5274274086       -2.4623071585       -0.5600017262
 H          7.6163233507       -2.5311043898       -0.5998012109
 H          6.1276143839       -3.3875589715       -0.9760272037
 C          6.0764584348       -1.2720386110       -1.4181794205
 H          5.8229427812       -0.4304573340       -0.7693590083
 H          6.9033831392       -0.9476840902       -2.0538596807
 C          4.8884586386       -1.5653884908       -2.3344930516
 H          5.1742047370       -2.3137530437       -3.0768827545
 H          4.6296655838       -0.6457587431       -2.8651952434
 C          3.6334347293       -2.0582991855       -1.6023995750
 H          2.7930620733       -2.0251951922       -2.3000771168
 H          3.7717827837       -3.0863194069       -1.2682592947
 H          6.4542034716       -1.3903711708        1.3089921850
 H          6.6791685737       -3.1330635216        1.4662045369
 H          4.5190186762       -2.6505870475        2.2925697864
 H          4.2888215387       -3.4592666271        0.7326067213
 O          3.5290629459       -0.5545863568        1.8375302040
 C          2.7738899667        0.5952546351        1.6663941296
 O          2.6297301132        1.2748567018        2.7045350718
 O          1.9457074859        0.1939086815       -1.8364852796
 C          1.4205027419        2.1258030469        0.2341667645
 C          0.0178517236        1.7764057409       -0.2035960313
 C         -0.6669758062        2.4715608954       -1.1914578250
 C         -1.9601003477        2.1134723098       -1.5322617835
 C         -2.5974537890        1.0625023976       -0.8996258610
 C         -1.9273599732        0.3690075285        0.0999800184
 C         -0.6348945123        0.7339908940        0.4431202248
 H         -0.1156424633        0.1943301711        1.2268986069
 N         -2.5632923881       -0.7074613994        0.7446706087
 S         -4.0904907618       -0.4451251037        1.3933637819
 O         -4.2682814763        0.9338627739        1.7859815773
 O         -4.2320872998       -1.4344941987        2.4395636591
 C         -5.1989081146       -0.8497961380        0.0603011180
 C         -5.0845686241       -2.0957231059       -0.5246641970
 C         -5.9471784438       -2.4320521253       -1.5556152345
 C         -6.9059693516       -1.5235464932       -1.9791609820
 C         -7.0097477701       -0.2778770188       -1.3793718889
 C         -6.1491585532        0.0654641339       -0.3481241015
 H         -6.1883803998        1.0240102457        0.1442516005
 H         -7.7557291174        0.4266972013       -1.7102209732
 H         -7.5761625126       -1.7884569369       -2.7816309433
 H         -5.8688715231       -3.3995452621       -2.0248790425
 H         -4.3279289920       -2.7726656548       -0.1642446620
 H         -1.9740203529       -1.1818202465        1.4135938989
 H         -3.6012345447        0.7761602923       -1.1677269194
 H         -2.4774557877        2.6589428268       -2.3065972457
 H         -0.1870899204        3.2926217995       -1.6980094175
 H          1.3558059418        2.5851536328        1.2322090685
 C          2.1233568228        3.0884150795       -0.7010130794
 C          1.9537084246        4.5676949703       -0.5347916040
 C          3.2521133545        3.9162813118       -0.1671410089
 H          4.1127662129        4.0843088034       -0.7970141149
 H          3.4933660142        3.8070393561        0.8806817492
 H          1.9262557379        5.1865815071       -1.4189431858
 H          1.3161684112        4.9118016206        0.2657061743
 H          2.2246904216        2.6916403545       -1.7045172585
