  62
        -98.93611368
 C         -2.2264318811       -0.7943835208        0.1398787504
 C         -3.4163051413       -0.9188525176        0.9016310958
 C         -4.3680493317        0.2044437041        0.8544870616
 C         -4.0582572934        1.2975964270        0.1336293526
 C         -4.7965117651        2.6046179950       -0.0678607286
 C         -6.2564747746        2.7495641047        0.3532409033
 C         -7.2445929765        1.9286374818       -0.4752938878
 H         -8.2327897365        2.0211073618       -0.0196983036
 H         -7.2987400360        2.3608677693       -1.4777114879
 C         -6.9053978210        0.4483592304       -0.6311676159
 H         -7.6776957418       -0.0074622042       -1.2567362105
 H         -5.9579031746        0.3440851613       -1.1640101012
 C         -6.8336858279       -0.3463293847        0.6711210180
 H         -6.7393057412       -1.4033171597        0.4075540400
 H         -7.7644619160       -0.2234886031        1.2281037941
 C         -5.6579627930        0.0069127139        1.5978158025
 H         -5.8851633748        0.8757952914        2.2106779768
 H         -5.4947979642       -0.8374481907        2.2738806539
 H         -6.5140458039        3.8042435751        0.2232777949
 H         -6.3662560039        2.5277986609        1.4106760091
 H         -4.7061099354        2.8369362900       -1.1339760331
 H         -4.2055861600        3.3608771877        0.4608485820
 O         -2.8804371354        1.3928591277       -0.5483896258
 C         -1.9434990343        0.3683900564       -0.5768445150
 O         -0.9429086193        0.6341982080       -1.2692388714
 O         -3.6742047337       -1.9317281160        1.6047036358
 C         -1.2440334644       -1.9521674811        0.1969215840
 C          0.1266191993       -1.4391699530        0.5535132163
 C          0.4239475375       -1.1476234212        1.8814230157
 C          1.6552985231       -0.6255933325        2.2296519605
 C          2.6107329897       -0.3727960146        1.2605888672
 C          2.3153152576       -0.6407088883       -0.0688582486
 C          1.0876843064       -1.1916735389       -0.4129360696
 H          0.8634299374       -1.3862695752       -1.4501320547
 N          3.2715514052       -0.3784710332       -1.0634769351
 S          4.1491782699        1.0494098020       -0.9968828264
 O          3.4214631251        2.1148823076       -0.3478548756
 O          4.5705955018        1.2931646466       -2.3597205319
 C          5.5785809804        0.6090247808       -0.0267813300
 C          6.3040381691       -0.5048596587       -0.4020361425
 C          7.4230304132       -0.8552612950        0.3362339540
 C          7.7984836852       -0.0887880531        1.4294898861
 C          7.0626925958        1.0291027050        1.7911082502
 C          5.9416040248        1.3843425952        1.0569627030
 H          5.3361372352        2.2420746044        1.3042847440
 H          7.3558352476        1.6247245988        2.6406937277
 H          8.6695666875       -0.3638912758        2.0029108598
 H          7.9977285977       -1.7238414767        0.0577213698
 H          5.9808403890       -1.0718027166       -1.2588712095
 H          2.9287925194       -0.5406308423       -1.9995528446
 H          3.5667190266        0.0500013845        1.5226692364
 H          1.8741346973       -0.4081318336        3.2641022730
 H         -0.3287940390       -1.3255076769        2.6370801132
 H         -1.6057468866       -2.5701191441        1.0344005871
 C         -1.2414522025       -2.8504251786       -1.0311001776
 C         -2.5274808662       -3.1981205768       -1.7178461599
 C         -1.5080950900       -2.3537301836       -2.4190758804
 H         -0.9509978481       -2.7959998910       -3.2326379215
 H         -1.7101153347       -1.3026876324       -2.5536295786
 H         -2.6778378270       -4.2128395188       -2.0539314052
 H         -3.4257400152       -2.7175579856       -1.3582551458
 H         -0.5123893024       -3.6498526369       -0.9374982179
