  62
        -98.93797731
 C         -2.0380364677       -1.1562590572        0.7791425035
 C         -1.9337475456        0.2255124582        1.0865264073
 C         -3.0915503596        1.0594351405        0.7498346875
 C         -4.1819919636        0.4912322582        0.2047187432
 C         -5.4611034832        1.1957760405       -0.1583331383
 C         -5.4364083676        1.8683709600       -1.5375882213
 C         -4.5766216608        3.1295863207       -1.6294367876
 H         -4.8199645383        3.6155202327       -2.5764219088
 H         -4.8555876983        3.8170982731       -0.8302962397
 C         -3.0647823033        2.8676816459       -1.5832111792
 H         -2.5708545831        3.4423054118       -2.3702011137
 H         -2.8712587794        1.8125036021       -1.7910491366
 C         -2.3945466831        3.2418816687       -0.2611545647
 H         -1.3370725994        2.9746924460       -0.3342723404
 H         -2.4599933237        4.3216863662       -0.1101545704
 C         -2.9840580761        2.5383096117        0.9685916625
 H         -2.3131115617        2.7010715472        1.8156470017
 H         -3.9596108974        2.9598535581        1.2099162763
 H         -5.0943221004        1.1395222553       -2.2761574663
 H         -6.4654944687        2.1362892896       -1.7881187095
 H         -5.6993628617        1.9373554224        0.6048112574
 H         -6.2448619329        0.4350966148       -0.1608924398
 O         -4.2503103971       -0.8371376785       -0.0661311021
 C         -3.1736044159       -1.6903616120        0.1689577219
 O         -3.3808809385       -2.8593550583       -0.2017510418
 O         -0.9169968943        0.7335946499        1.6276754461
 C         -0.8168931770       -1.9991036909        1.1023358676
 C          0.2008132801       -1.8747289847       -0.0038056312
 C         -0.1773457479       -1.9891343850       -1.3376614899
 C          0.7552389410       -1.8434373118       -2.3487232251
 C          2.0821815294       -1.5851233155       -2.0514688363
 C          2.4702590551       -1.4668991854       -0.7237356381
 C          1.5310853772       -1.6134982632        0.2908304022
 H          1.8361669745       -1.5025208606        1.3226249661
 N          3.8244687452       -1.2053302493       -0.4282178770
 S          4.4525841777        0.2884508136       -0.8572258858
 O          4.0662026074        0.5825875862       -2.2124908873
 O          5.8700781776        0.2104445732       -0.5909460251
 C          3.6984385463        1.4413143465        0.2762775599
 C          4.4615568221        1.9822508249        1.2923428549
 C          3.8553858732        2.8271060684        2.2079469739
 C          2.4993500708        3.0975693906        2.1036652706
 C          1.7452254957        2.5413623272        1.0817517616
 C          2.3490636961        1.7088032963        0.1532709257
 H          1.7869763514        1.2629512698       -0.6522769932
 H          0.6841163669        2.7212364656        1.0220670470
 H          2.0218028346        3.7424635035        2.8244300269
 H          4.4378129851        3.2634289038        3.0035725057
 H          5.5094606523        1.7333935952        1.3402938726
 H          4.0724591049       -1.4015417575        0.5318225184
 H          2.8165670899       -1.4526283696       -2.8286274445
 H          0.4469755043       -1.9343537163       -3.3795386929
 H         -1.2122522918       -2.1934499016       -1.5721977412
 H         -0.3790372416       -1.5321976776        1.9995314883
 C         -1.1330005454       -3.4442918318        1.4538055784
 C         -0.8533958178       -4.5948349654        0.5393708501
 C         -0.0219242919       -4.4016413176        1.7698369256
 H         -0.1484421721       -5.0861348150        2.5947416874
 H          0.9912031212       -4.0539162011        1.6341820474
 H         -1.5737840064       -5.3977542170        0.5130843143
 H         -0.4025457899       -4.3880428413       -0.4186425267
 H         -2.0294417956       -3.5243181964        2.0595834026
