  62
        -98.94151282
 C         -2.5666916532       -0.0604532710        0.0948414322
 C         -2.5401123964        1.0901626472        0.9210781193
 C         -2.1137733654        2.3391219759        0.2836887146
 C         -1.7606628180        2.3354677113       -1.0141778881
 C         -1.2736038185        3.5195505556       -1.8036962331
 C          0.2277541536        3.7858472808       -1.6261391186
 C          0.6191514680        4.4181830902       -0.2896699584
 H          1.6435256140        4.7810107567       -0.3945361790
 H         -0.0167178161        5.2826888720       -0.0936854167
 C          0.5635011009        3.4533473808        0.9031258416
 H          1.4628638230        3.5735614698        1.5129839169
 H          0.5733777918        2.4219776439        0.5404641566
 C         -0.6356363584        3.6502271180        1.8314609140
 H         -0.5965215927        2.8742336954        2.6009027398
 H         -0.5588584457        4.6212714481        2.3271004405
 C         -2.0021157074        3.5648534390        1.1396441786
 H         -2.7716539260        3.5004360829        1.9134293244
 H         -2.1779277038        4.4603669340        0.5436694379
 H          0.5398513685        4.4570490178       -2.4298080925
 H          0.7636702206        2.8406544944       -1.7457063896
 H         -1.4633573620        3.2926018599       -2.8549071608
 H         -1.8416630736        4.4090895144       -1.5294394055
 O         -1.8174496644        1.2173390271       -1.7814332618
 C         -2.1655009970       -0.0124312918       -1.2422802402
 O         -2.0949474121       -0.9538639875       -2.0549027280
 H         -0.2747562139       -0.8656999451        0.8517421131
 C         -0.4422888094       -1.8845402381        0.5308587527
 C         -1.7448066146       -2.3611228658        0.4292400133
 C         -1.9352978210       -3.6803509057        0.0450696125
 C         -0.8459656078       -4.4878496459       -0.2417967179
 C          0.4433495428       -3.9956038645       -0.1818573037
 C          0.6435639403       -2.6689228282        0.1908709574
 N          1.9341188461       -2.1102788204        0.1761103879
 S          2.1873472632       -0.4785769157        0.4544710852
 O          1.9739141065       -0.1461716175        1.8485604325
 O          1.4386317554        0.2808503818       -0.5140002359
 C          3.9280296587       -0.3884513483        0.0817408129
 C          4.3144765378       -0.3359286169       -1.2439759217
 C          5.6658902341       -0.2987840145       -1.5480225421
 C          6.6041507867       -0.3156162456       -0.5264300038
 C          6.2018020518       -0.3657583594        0.7995385899
 C          4.8512025548       -0.4033405376        1.1097011305
 H          4.4907153637       -0.4326519246        2.1253381919
 H          6.9331339823       -0.3750670635        1.5915409640
 H          7.6553755562       -0.2868262440       -0.7658996868
 H          5.9814696004       -0.2568019692       -2.5780331375
 H          3.5479553229       -0.3172443302       -2.0017287100
 H          2.6687412916       -2.7064335883        0.5253461636
 H          1.2875392666       -4.6180695337       -0.4331787278
 H         -1.0081918779       -5.5141287274       -0.5347638134
 H         -2.9337115599       -4.0754360108       -0.0466482871
 C         -2.8585976327       -1.3959141993        0.7570758245
 H         -2.7998868346       -1.1753485525        1.8378733629
 C         -4.2512312826       -1.9552768621        0.5093877318
 C         -5.3687757448       -1.0735217066        0.0402344751
 C         -4.8122809623       -2.1251841740       -0.8694814824
 H         -5.4169723467       -2.9972442891       -1.0715593420
 H         -4.1938160902       -1.8152482032       -1.6965902001
 H         -5.1336686785       -0.0401927015       -0.1716750498
 H         -6.3508226472       -1.2211933049        0.4642265247
 H         -4.5196166426       -2.7134388702        1.2389187838
 O         -2.8491487361        1.0697658246        2.1448554103
