  62
        -98.93830407
 C          1.8700738509        0.7716516081       -0.2449294780
 C          2.4630747019        0.1346901184        0.8693172343
 C          3.5457501398       -0.8198948727        0.5796710802
 C          3.8850670322       -1.0620473359       -0.6982440775
 C          4.9208562939       -2.0223495193       -1.2277064845
 C          6.2710628948       -2.0829785506       -0.5002578166
 C          6.7437166043       -0.7529700926        0.1047322022
 H          7.7681453321       -0.5606941999       -0.2193856665
 H          6.1257592249        0.0669661491       -0.2651660699
 C          6.7285195140       -0.7540154575        1.6352763123
 H          7.1291075553       -1.7067139237        1.9886817768
 H          7.3957068020        0.0337030893        1.9934038020
 C          5.3627050256       -0.5163807769        2.2780743947
 H          5.0539877456        0.5202802115        2.1184216527
 H          5.4696335354       -0.6561959999        3.3564809312
 C          4.2275061226       -1.4226725371        1.7743735380
 H          4.5867541833       -2.4282827028        1.5694022273
 H          3.4683644787       -1.4777406401        2.5595917577
 H          7.0047538027       -2.4328514401       -1.2284922773
 H          6.2283076969       -2.8352823060        0.2862121826
 H          5.0782493477       -1.7235737621       -2.2669049224
 H          4.4787823973       -3.0230290254       -1.2455550629
 O          3.2615861538       -0.4508187181       -1.7451745767
 C          2.2484199967        0.4761540511       -1.5537374964
 O          1.7799555505        0.9492892544       -2.6054944831
 O          2.0928398521        0.3413303524        2.0569451862
 C          0.7584552073        1.7786624361       -0.0114637800
 C         -0.5219102485        1.2860112024       -0.6397293948
 C         -1.3181129602        2.0590216896       -1.4734500399
 C         -2.4766434602        1.5338144606       -2.0213373411
 C         -2.8716042190        0.2391417022       -1.7424999108
 C         -2.0928524335       -0.5359870873       -0.8912965828
 C         -0.9345375694       -0.0081767082       -0.3436755755
 H         -0.3273423240       -0.6149668116        0.3168035096
 N         -2.4964664594       -1.8460525889       -0.5825360740
 S         -4.1068703145       -2.0957300345       -0.2007095319
 O         -4.1153059612       -3.2509654295        0.6693885555
 O         -4.8796056032       -2.2167267592       -1.4118978282
 C         -4.6093824245       -0.6342469116        0.6913453174
 C         -5.6235860590        0.1604995656        0.1975788060
 C         -5.9745945770        1.3075306794        0.8914839632
 C         -5.3053709695        1.6401987113        2.0587427424
 C         -4.2906270646        0.8293124170        2.5441493902
 C         -3.9372437210       -0.3197198624        1.8559324388
 H         -3.1551763154       -0.9723205583        2.2104285761
 H         -3.7702220987        1.0888912409        3.4521682850
 H         -5.5750015262        2.5359796579        2.5955087967
 H         -6.7645269647        1.9386863428        0.5176364130
 H         -6.1146777390       -0.1337992683       -0.7155648180
 H         -1.8861055662       -2.3224032915        0.0646283610
 H         -3.7607472747       -0.1890633384       -2.1760172149
 H         -3.0786991788        2.1415699118       -2.6791454809
 H         -1.0269388125        3.0697801843       -1.7057788069
 H          0.6133930753        1.8021902989        1.0789553640
 C          1.1788828101        3.1565545863       -0.4759294291
 C          0.5910528161        4.3784153513        0.1625436881
 C          2.0153770801        4.0020657672        0.4356156245
 H          2.8024985521        4.6023996571        0.0045098419
 H          2.2611524792        3.5932716602        1.4050173568
 H          0.4008208606        5.2424777717       -0.4558374466
 H         -0.1310765190        4.2314334457        0.9511023837
 H          1.4066486360        3.1879889308       -1.5354015698
