  62
        -98.93799375
 C         -1.3886387112       -1.5911319054       -0.9027028677
 C         -2.6037530699       -1.3876334955       -0.2028093181
 C         -3.3381001688       -0.1428401899       -0.4784747289
 C         -2.8304172811        0.7243147943       -1.3711003529
 C         -3.3481728210        2.0921050086       -1.7188008112
 C         -2.6517943489        3.1544346208       -0.8495710891
 C         -3.3422265983        3.4430405584        0.4819714276
 H         -2.6957818472        4.1264873638        1.0377441349
 H         -4.2887823479        3.9567141065        0.2975396243
 C         -3.6071713751        2.2093355737        1.3488591366
 H         -2.7306566973        1.5575762054        1.3216264033
 H         -3.7259999149        2.5438318207        2.3817532651
 C         -4.8651866142        1.4336200828        0.9295225861
 H         -5.4932780228        1.2658972963        1.8069908794
 H         -5.4481372745        2.0495534376        0.2445971622
 C         -4.6120143872        0.0569775400        0.2961516688
 H         -5.4583848017       -0.1974342625       -0.3508775632
 H         -4.5780998324       -0.7037745870        1.0824027677
 H         -1.6289144774        2.8187131726       -0.6549382853
 H         -2.5916357485        4.0887363501       -1.4121448882
 H         -3.0893712166        2.2706243752       -2.7645749325
 H         -4.4279234208        2.1390618516       -1.6102718513
 O         -1.6878302341        0.4725399898       -2.0586747001
 C         -0.9133208828       -0.6530762015       -1.8178133582
 O          0.1327718551       -0.6850087431       -2.4926081595
 O         -3.0508565170       -2.2182056951        0.6359005111
 C         -0.5786233777       -2.8101504330       -0.4914333197
 C          0.1576252162       -2.4678948807        0.7812403791
 C          0.1171737884       -3.2943300941        1.8961396700
 C          0.7261795711       -2.9032369516        3.0765768499
 C          1.3567468550       -1.6765852681        3.1728548916
 C          1.4084316516       -0.8434554818        2.0582558037
 C          0.8421170143       -1.2630454910        0.8658212721
 H          0.8823394865       -0.6185391334        0.0042878114
 N          2.0338910486        0.4052734820        2.1297397728
 S          1.6640123147        1.7023101724        1.1337137821
 O          1.9390467342        2.8612455381        1.9590864446
 O          0.3317232471        1.6160850239        0.5883749706
 C          2.9194115985        1.6032044229       -0.1254269936
 C          4.1925419653        2.0022423663        0.2388769945
 C          5.2162239318        1.9249574138       -0.6895230802
 C          4.9531208115        1.4490955304       -1.9658912335
 C          3.6721434946        1.0551893669       -2.3165288437
 C          2.6411028403        1.1311377152       -1.3910632087
 H          1.6415605861        0.8203327043       -1.6545822647
 H          3.4572439089        0.6823014661       -3.3052362339
 H          5.7487240628        1.3862576364       -2.6915075127
 H          6.2126633134        2.2341566427       -0.4178443753
 H          4.3482112352        2.3784492734        1.2363695624
 H          2.2996047217        0.7027962686        3.0560136164
 H          1.7982837841       -1.3572889068        4.1045038376
 H          0.6867293217       -3.5498849745        3.9401033500
 H         -0.4183892121       -4.2307452433        1.8443764048
 H         -1.3220911346       -3.5843489055       -0.2413781722
 C          0.3203001309       -3.3729881377       -1.5789341929
 C          1.8068761438       -3.2014566358       -1.5840053092
 C          1.2120795260       -4.5411194645       -1.2765610476
 H          1.2986603302       -5.3283034950       -2.0098976912
 H          1.2538730891       -4.8816980163       -0.2529561516
 H          2.2868451897       -3.0489702795       -2.5381612825
 H          2.2590473787       -2.6447614576       -0.7778692600
 H         -0.1659793622       -3.3674960496       -2.5485644240
