  62
        -98.94396835
 C         -2.6440926198       -1.0892992600        0.1535951509
 C         -2.6030690799       -0.2460495902       -0.9833948392
 C         -3.4096794099        0.9805327698       -0.8974409293
 C         -4.1456147999        1.2111884799        0.2051498007
 C         -4.9848778099        2.4340800100        0.4361506505
 C         -4.1896842799        3.5272629901        1.1632314504
 C         -2.8201487900        3.8073035700        0.5443390903
 H         -2.1872124999        2.9249521101        0.6667496104
 H         -2.3609679200        4.6133801701        1.1209791602
 C         -2.8617393200        4.1980317898       -0.9397033497
 H         -2.1992169200        5.0521991398       -1.0943469698
 H         -3.8691293700        4.5166414698       -1.2096413497
 C         -2.4036910400        3.0982290997       -1.8998314496
 H         -1.4359879900        2.7067232098       -1.5751767196
 H         -2.2600855800        3.5475969696       -2.8858569996
 C         -3.3677148600        1.9172400897       -2.0718432794
 H         -3.0135223400        1.3196577996       -2.9168088994
 H         -4.3670066700        2.2885839896       -2.3073283094
 H         -4.0400484699        3.2158580102        2.1998273004
 H         -4.7837142900        4.4428781500        1.1666468003
 H         -5.8416179899        2.1515126900        1.0502342606
 H         -5.3436973700        2.8068375298       -0.5211501895
 O         -4.1729995799        0.3673653501        1.2693559008
 C         -3.4104346598       -0.7901168899        1.2786191509
 O         -3.4975129398       -1.4562794998        2.3312287110
 O         -1.9283717699       -0.5012384803       -2.0138067091
 C         -1.8394937698       -2.3749052900        0.1655096711
 C         -0.3767918398       -2.1053303900       -0.0977369890
 C          0.4199509802       -2.9685354700       -0.8397784989
 C          1.7603126802       -2.6891304900       -1.0402614989
 C          2.3345916402       -1.5466952899       -0.5148179091
 C          1.5521635502       -0.6830483299        0.2405670008
 C          0.2132597702       -0.9757504499        0.4546537709
 H         -0.3922241098       -0.3027917098        1.0508177308
 N          2.1150491901        0.4947606502        0.7576876607
 S          3.6173861101        0.4355509803        1.4988952806
 O          3.8386479302       -0.8339956896        2.1521749508
 O          3.6612969001        1.6075416104        2.3459126205
 C          4.7691995701        0.6421378402        0.1568178706
 C          4.5791810701        1.6997385801       -0.7108365095
 C          5.4723928700        1.8763447400       -1.7554506296
 C          6.5367334601        1.0007340300       -1.9112417595
 C          6.7164025001       -0.0533115899       -1.0287209194
 C          5.8254286101       -0.2368995498        0.0173070307
 H          5.9204264102       -1.0469211897        0.7227738408
 H          7.5442052601       -0.7330239899       -1.1514976793
 H          7.2295489501        1.1405560399       -2.7259351695
 H          5.3344710400        2.6939235099       -2.4445993097
 H          3.7401504901        2.3576495901       -0.5564805396
 H          1.4709470301        1.0629750303        1.2873244906
 H          3.3751998202       -1.3205549099       -0.6789586091
 H          2.3656034802       -3.3673631301       -1.6219511989
 H         -0.0105301998       -3.8605842601       -1.2641960388
 H         -1.9322873298       -2.7849699499        1.1827168211
 C         -2.4446494298       -3.3620100101       -0.8138632288
 C         -2.4262915697       -4.8323847101       -0.5266005686
 C         -3.7112138297       -4.0670978201       -0.4353677587
 H         -4.4626295898       -4.2222731802       -1.1949456286
 H         -4.1176219297       -3.8599654300        0.5443278613
 H         -2.2987684397       -5.5176867002       -1.3510992785
 H         -1.9668908397       -5.1577559300        0.3947127414
 H         -2.3412521898       -3.0376274602       -1.8430152188
