  62
        -98.95045787
 C          1.7717973659        1.2731979789       -0.2406739065
 C          2.8563971624        0.6214331508        0.3893655261
 C          3.2573455321       -0.6661982389       -0.1908513832
 C          2.5928059858       -1.1428946486       -1.2594675139
 C          2.8822585342       -2.4512759539       -1.9358897301
 C          2.0244306161       -3.5848616786       -1.3589150253
 C          2.0458943367       -3.6641092185        0.1675939894
 H          1.5328152486       -2.7886277348        0.5735405461
 H          1.4480547019       -4.5328730414        0.4542694419
 C          3.4473766947       -3.7830069506        0.7825247823
 H          3.4172214004       -4.5416100813        1.5676654370
 H          4.1552455200       -4.1262147022        0.0267002079
 C          3.9748636431       -2.4996217642        1.4270329372
 H          4.8469980416       -2.7577764521        2.0341919871
 H          3.2147340599       -2.0938183252        2.1001529471
 C          4.4030041573       -1.3905440521        0.4577125911
 H          5.0789849746       -1.8006090460       -0.2955302599
 H          4.9466722488       -0.6360049653        1.0341407491
 H          2.3721330154       -4.5300455144       -1.7814019303
 H          0.9881138747       -3.4299258612       -1.6685983615
 H          2.6571508441       -2.3438747592       -2.9986580023
 H          3.9385715376       -2.6871221160       -1.8201369412
 O          1.5558131009       -0.4886514792       -1.8386761766
 C          1.0983252347        0.7128122602       -1.3249337382
 O          0.1097667415        1.1842162902       -1.9210823532
 O          3.4617805100        1.0966115161        1.3898690224
 C          1.2690508564        2.5917992214        0.3186681252
 C         -0.1882526404        2.4684192811        0.6897597271
 C         -1.1310791547        3.4585444686        0.4427377785
 C         -2.4596128149        3.2634244729        0.7805862756
 C         -2.8803541072        2.0731229464        1.3451832120
 C         -1.9420552191        1.0818488405        1.6066125432
 C         -0.6073869527        1.2986788015        1.3103086450
 H          0.1083131152        0.5185171048        1.5247743546
 N         -2.3110859589       -0.1688145711        2.1482474440
 S         -2.0916660377       -1.4918729767        1.1372675456
 O         -2.5902425052       -2.6259774543        1.8862655234
 O         -0.7197774987       -1.5618536276        0.7103004469
 C         -3.1867091705       -1.1644819085       -0.2324864410
 C         -4.4520506200       -1.7204896871       -0.2054223334
 C         -5.3451625098       -1.4101560621       -1.2173823866
 C         -4.9631531423       -0.5420114012       -2.2295581570
 C         -3.6918774135        0.0100960365       -2.2392527276
 C         -2.7895095906       -0.2992073337       -1.2319979672
 H         -1.7936804577        0.1174115547       -1.2284147338
 H         -3.3857525178        0.6855309886       -3.0220265000
 H         -5.6586055188       -0.2944079691       -3.0160013998
 H         -6.3333230869       -1.8412525778       -1.2121886109
 H         -4.7015153569       -2.3912731931        0.6010322192
 H         -3.2541762937       -0.1900007487        2.5132054027
 H         -3.9213243732        1.9082961348        1.5794698824
 H         -3.1804655869        4.0414417401        0.5810805723
 H         -0.8267034720        4.3816395468       -0.0229045527
 H          1.8499769742        2.7630700000        1.2376343510
 C          1.5479834645        3.7199646796       -0.6532297216
 C          1.8160092197        5.1067866410       -0.1514972991
 C          2.9329385490        4.2875955710       -0.7225598873
 H          3.3324631399        4.5567195729       -1.6887439865
 H          3.6684423824        3.8779030153       -0.0456104942
 H          1.4511809564        5.9432752289       -0.7282994179
 H          1.8003479765        5.2645052905        0.9163064845
 H          1.0066279305        3.6058633128       -1.5858458447
