  62
        -98.94286850
 C          2.0318998509        0.3004606406        0.9490403697
 C          2.9020615109        1.1312404899        0.2010862989
 C          4.3024774308        0.6869043997        0.1191841491
 C          4.6800148808       -0.4455687599        0.7376720899
 C          6.0554859607       -1.0423375701        0.6767838702
 C          6.1791351204       -2.0323579310       -0.4900550090
 C          5.6698454803       -1.4833804820       -1.8229096094
 H          5.8345130901       -2.2565603326       -2.5765399988
 H          4.5906772903       -1.3270807418       -1.7547393894
 C          6.3439857104       -0.1793888524       -2.2721030505
 H          6.5920845803       -0.2612850833       -3.3324450905
 H          7.2803922205       -0.0411271921       -1.7303894907
 C          5.4767401906        1.0705992478       -2.1124816614
 H          5.9584192006        1.8893672573       -2.6535097321
 H          4.5015989305        0.9007403876       -2.5756103511
 C          5.2500394509        1.5449961290       -0.6715722117
 H          6.2090827109        1.6339668792       -0.1576865919
 H          4.7903699510        2.5364379490       -0.7169692524
 H          5.6027158603       -2.9279821708       -0.2463790783
 H          7.2274810904       -2.3198942812       -0.5890712989
 H          6.7881085908       -0.2447803403        0.5697168795
 H          6.2424225608       -1.5720333394        1.6124632006
 O          3.8219039908       -1.2115933992        1.4586631106
 C          2.4883397108       -0.8634742489        1.5763253705
 O          1.8152609008       -1.6573252383        2.2656234512
 H         -1.4917628093       -1.1645587488        1.1078232913
 C         -1.2966888193       -0.7485177396        0.1308223010
 C         -0.2706964592        0.1686343902       -0.0444536399
 C         -0.0405657393        0.6802115691       -1.3179929303
 C         -0.8156366695        0.2712812684       -2.3872705499
 C         -1.8486337796       -0.6322565413       -2.2057397691
 C         -2.0921111695       -1.1426234503       -0.9370764586
 N         -3.1448627096       -2.0517547900       -0.7103671478
 S         -4.3277893294       -1.6207390590        0.3938799120
 O         -3.7538802092       -1.5009507180        1.7088343719
 O         -5.3712069696       -2.6077706290        0.2310648329
 C         -4.9033591893       -0.0314660993       -0.1787974591
 C         -6.0261726094        0.0210535602       -0.9817617590
 C         -6.4350324993        1.2455030598       -1.4849416099
 C         -5.7094751991        2.3895421800       -1.1887658409
 C         -4.5821326190        2.3194749205       -0.3847478310
 C         -4.1721069191        1.0990863508        0.1286327799
 H         -3.3016891790        1.0122020712        0.7582560898
 H         -4.0155526989        3.2076830806       -0.1557144718
 H         -6.0239359390        3.3420797097       -1.5851786316
 H         -7.3132781994        1.3032180395       -2.1075690798
 H         -6.5600133995       -0.8934880299       -1.1839930582
 H         -3.5830488398       -2.3845141506       -1.5581827275
 H         -2.4586919598       -0.9448085519       -3.0398972987
 H         -0.6209141296        0.6686825976       -3.3717502302
 H          0.7562296207        1.3937654189       -1.4599265310
 C          0.5539507710        0.5998010510        1.1451187497
 H          0.2418238710       -0.0140969483        2.0013794202
 C          0.2741576812        2.0534068713        1.4778376986
 C         -0.9655936287        2.3921132020        2.2472842085
 C          0.3790048214        2.5106433424        2.8996901482
 H          0.7752956016        3.4954036125        3.0961147974
 H          0.6513793915        1.7745861929        3.6427598787
 H         -1.4963787686        3.2985468619        1.9996889478
 H         -1.6035725287        1.5767295824        2.5577937192
 H          0.5985890912        2.7414318406        0.7087241380
 O          2.5532028710        2.1917696595       -0.3811130618
