  62
        -98.93623915
 C         -1.8977330721       -1.4131574007        0.2907008227
 C         -1.5923945744       -0.0759381927       -0.0581562564
 C         -2.6352883052        0.9155882680        0.2428462725
 C         -3.7842042812        0.5287152990        0.8246836138
 C         -4.9298747482        1.4245504454        1.2103290558
 C         -5.9019659931        1.7244152637        0.0611308717
 C         -5.3690573429        2.6777215948       -1.0092750522
 H         -6.2187160069        2.9697227420       -1.6296785889
 H         -4.9885028249        3.5816663366       -0.5328010585
 C         -4.2843034491        2.0736274451       -1.9122115279
 H         -4.3010742462        0.9847400932       -1.8244029297
 H         -4.5040236009        2.3123349198       -2.9553452823
 C         -2.8680828837        2.5712616565       -1.6230806606
 H         -2.8047302731        3.6404629988       -1.8376178538
 H         -2.1788979492        2.0524362747       -2.2946316955
 C         -2.3952031888        2.3327220220       -0.1830838217
 H         -1.3182329330        2.5140160127       -0.1468227155
 H         -2.8929798441        3.0246805460        0.4959669754
 H         -6.1945354808        0.7805279276       -0.4047259078
 H         -6.7979338565        2.1694990070        0.4999297001
 H         -5.4788637668        0.9047457839        1.9984184646
 H         -4.5436134156        2.3605029798        1.6146413181
 O         -4.0333554534       -0.7660299169        1.1579931775
 C         -3.1113029596       -1.7622207655        0.8876851418
 O         -3.4788804436       -2.9053942920        1.2283795823
 O         -0.5119482827        0.2887514958       -0.5847200673
 C         -0.9195986269       -2.5522668382        0.0245988941
 C          0.4090836141       -2.2310413896        0.6644790181
 C          0.4694835216       -2.3873157397        2.0509985476
 C          1.6218543746       -2.1089321227        2.7575804632
 C          2.7561874159       -1.6708681738        2.0967787957
 C          2.7127167520       -1.5069474052        0.7187931328
 C          1.5452620223       -1.7776321743        0.0125555246
 H          1.5571581764       -1.5933787486       -1.0450447473
 N          3.8670279885       -1.1134573831        0.0173339374
 S          3.8694553440        0.1788919151       -1.0462239050
 O          2.9091519259       -0.0379058716       -2.0946824700
 O          5.2518991660        0.2930744909       -1.4610708742
 C          3.4479587255        1.5918791170       -0.0418261928
 C          2.1300107491        1.8208414780        0.2977985211
 C          1.8387974411        2.8860590041        1.1374229152
 C          2.8564485549        3.6951071531        1.6180973281
 C          4.1749188569        3.4494558896        1.2652509536
 C          4.4758555089        2.3848519845        0.4319945375
 H          5.4848526532        2.1575411603        0.1276666247
 H          4.9655912707        4.0808624730        1.6375363285
 H          2.6191261383        4.5214020936        2.2697064864
 H          0.8122403814        3.0732076555        1.4120358441
 H          1.3525686136        1.1833177415       -0.0943520946
 H          4.6924382647       -1.0595032780        0.5977054687
 H          3.6652828636       -1.4624698757        2.6404584977
 H          1.6397298370       -2.2368844447        3.8292973903
 H         -0.4144562792       -2.7312434398        2.5715078232
 H         -1.3308489212       -3.4037217974        0.5909775067
 C         -1.0068462956       -2.9794355158       -1.4342489376
 C         -0.4292383286       -2.2582606219       -2.6128242574
 C          0.1072130413       -3.6030952522       -2.2191073391
 H         -0.1285850370       -4.4486157654       -2.8486460415
 H          1.0857321733       -3.6543253616       -1.7687677258
 H         -1.0400548972       -2.1960232033       -3.5032481110
 H          0.1655426586       -1.3738168368       -2.4505761952
 H         -1.9932242467       -3.4068572778       -1.6081003499
