  62
        -98.93975889
 C          2.2113988869        0.7941770024        0.1504206616
 C          2.4348483174       -0.3606305150        0.9373289923
 C          3.1173108541       -1.4750796218        0.2671466106
 C          3.4434790667       -1.3580343008       -1.0332776562
 C          4.1846707544       -2.3937334351       -1.8271089523
 C          5.7003739723       -2.1571288498       -1.7694374769
 C          6.2395910284       -1.9476579031       -0.3544006011
 H          7.3215980667       -1.8224278980       -0.4340278748
 H          5.8370473704       -1.0143243901        0.0458762928
 C          5.9275828423       -3.0923162317        0.6196880658
 H          6.8310415718       -3.3250437603        1.1872207891
 H          5.6553986757       -3.9893482982        0.0623886631
 C          4.8311552796       -2.7765411452        1.6386993530
 H          4.8436299055       -3.5569161653        2.4042893855
 H          5.0545094077       -1.8285533622        2.1346552477
 C          3.4034106870       -2.7050294502        1.0824388056
 H          3.1870389519       -3.6078564142        0.5077073595
 H          2.7173071758       -2.6662148844        1.9337007433
 H          5.9344928403       -1.2684107944       -2.3600181018
 H          6.2005861147       -3.0116454254       -2.2287725620
 H          3.9459174042       -3.3820346237       -1.4390976147
 H          3.8553256669       -2.3309306008       -2.8655734345
 O          3.1704743137       -0.2508891817       -1.7693234099
 C          2.5541973750        0.8546203505       -1.2008053172
 O          2.3710294102        1.8003054016       -1.9890843060
 H         -0.4140076594        0.2070497001        0.5490660415
 C         -0.7086684274        1.1469974183        0.0982402728
 C          0.1841802991        2.2124048560        0.1254616433
 C         -0.2065080251        3.4176853209       -0.4402675345
 C         -1.4511654092        3.5392939933       -1.0352981719
 C         -2.3288220010        2.4724937880       -1.0764265875
 C         -1.9531912352        1.2644725578       -0.5012590449
 N         -2.8300437711        0.1621809195       -0.5467634124
 S         -4.4446454922        0.4534139043       -0.1380367662
 O         -5.1059292100        1.0371237893       -1.2778274766
 O         -4.5169485877        1.2136172265        1.0901233611
 C         -5.0391287882       -1.2059684443        0.1192032879
 C         -5.4029307692       -1.9588796371       -0.9810744047
 C         -5.8432907800       -3.2582889078       -0.7865114543
 C         -5.9115252466       -3.7800731709        0.4969064727
 C         -5.5445206533       -3.0114949035        1.5912987020
 C         -5.1018248927       -1.7114643292        1.4037674557
 H         -4.8148858631       -1.0751880224        2.2257359958
 H         -5.6017027004       -3.4185388077        2.5880185436
 H         -6.2560801907       -4.7911875678        0.6459251657
 H         -6.1319650165       -3.8584779975       -1.6341940313
 H         -5.3420418320       -1.5085000993       -1.9579829486
 H         -2.4691007072       -0.6221519608       -0.0200619721
 H         -3.3001676291        2.5593785063       -1.5357006339
 H         -1.7414505627        4.4808207595       -1.4769720680
 H          0.4630424350        4.2615687423       -0.4229498700
 C          1.5234552834        1.9897329707        0.7855478679
 H          1.3385479547        1.6976811389        1.8301694518
 C          2.4262812399        3.2040102607        0.7735575732
 C          2.2386330200        4.2870933503        1.7922289621
 C          3.4246869207        3.3754609228        1.8775936615
 H          4.3994480077        3.7708667754        1.6343775434
 H          3.4396324643        2.6258755477        2.6554732663
 H          1.4472822610        4.1599534124        2.5155096133
 H          2.4005196126        5.3113321906        1.4923175846
 H          2.7339788577        3.4873304208       -0.2264325229
 O          2.0731609080       -0.4575312943        2.1421212524
