  62
        -98.93811641
 C         -1.0670532190       -1.5035213318       -0.3379673706
 C         -2.1702505891       -1.4664184579        0.5507212778
 C         -3.1308710953       -0.3610130925        0.3846422185
 C         -2.9250965619        0.5335389395       -0.5981972974
 C         -3.7670471291        1.7258397288       -0.9759282720
 C         -5.2849402071        1.4932154422       -1.0411827471
 C         -6.0536369712        2.2017383037        0.0752430938
 H         -5.6147269764        3.1899638380        0.2277655955
 H         -7.0853557607        2.3514624963       -0.2506967860
 C         -6.0949590558        1.4559233227        1.4081599155
 H         -6.7566880842        0.5916490852        1.3176828105
 H         -6.5383103860        2.1266232194        2.1480673558
 C         -4.7415049341        0.9724398469        1.9341712630
 H         -4.8337841120        0.8411352615        3.0145163505
 H         -3.9751445439        1.7290313987        1.7715448448
 C         -4.2931921986       -0.3709847281        1.3398950374
 H         -3.9812251035       -1.0422227932        2.1461951565
 H         -5.1409805752       -0.8642317931        0.8548480420
 H         -5.6431058195        1.8816330653       -1.9959252150
 H         -5.4980136728        0.4253334728       -1.0278854758
 H         -3.5529522025        2.5418224550       -0.2816107177
 H         -3.3974581061        2.0365385908       -1.9555312920
 O         -1.8409443511        0.4696009164       -1.4194607058
 C         -0.8831045586       -0.5220332868       -1.3114759490
 O          0.0445922380       -0.4104906627       -2.1362642342
 O         -2.3509231113       -2.3303055833        1.4506091955
 C         -0.0779961618       -2.6463217165       -0.1688704966
 C          1.1615881765       -2.1299253065        0.5183256513
 C          1.3313602163       -2.3055150829        1.8875264402
 C          2.4354093755       -1.7813224831        2.5371882534
 C          3.3875835233       -1.0613130589        1.8369516798
 C          3.2167241615       -0.8689309444        0.4724486200
 C          2.1218104425       -1.4132273690       -0.1817770966
 H          1.9900297290       -1.2373562626       -1.2381263530
 N          4.1553512852       -0.0865582736       -0.2407343221
 S          4.1389199034        1.5462775894        0.1325136317
 O          5.0056645245        2.1798026333       -0.8345911982
 O          4.5068706089        1.7038779692        1.5168350905
 C          2.4562052842        2.0872061247       -0.1123779391
 C          1.5124125574        1.8135965468        0.8574483547
 C          0.2022679499        2.2101906743        0.6447609872
 C         -0.1379840957        2.8745336716       -0.5228645307
 C          0.8191109990        3.1327468198       -1.4906275330
 C          2.1282706512        2.7296696041       -1.2887165294
 H          2.9040592921        2.9104976686       -2.0155512815
 H          0.5458243112        3.6384597662       -2.4027432566
 H         -1.1574499563        3.1860676357       -0.6847232583
 H         -0.5490899073        1.9900381281        1.3877872197
 H          1.8109329339        1.3042971130        1.7596467749
 H          4.0551586516       -0.1841515121       -1.2424514396
 H          4.2400552266       -0.6216419285        2.3284360631
 H          2.5544980265       -1.9305999689        3.5996980905
 H          0.5780920744       -2.8448118867        2.4438125891
 H         -0.5698341722       -3.3536074872        0.5117146821
 C          0.2286792461       -3.3617962575       -1.4687154198
 C          0.8781781311       -4.7112826807       -1.4177359459
 C         -0.5554054031       -4.5845461809       -1.8352842316
 H         -0.8076139400       -4.7420895849       -2.8732625366
 H         -1.3188113598       -4.9156634996       -1.1464682240
 H          1.6134302708       -4.9586720464       -2.1679846634
 H          1.0874588614       -5.1272362758       -0.4438020554
 H          0.5089734591       -2.6979131075       -2.2760615312
