  62
        -98.94467502
 C          1.6189550825        1.2540744864       -0.2796025445
 C          1.4196159853       -0.1319069749       -0.4880128641
 C          2.2999532376       -1.0320478523        0.2725032035
 C          3.1856967870       -0.5183484456        1.1433521116
 C          4.1693847134       -1.3186241289        1.9459821568
 C          5.4989918225       -1.4813041504        1.1955212418
 C          5.3396796019       -1.9478771356       -0.2514939006
 H          4.8329098174       -1.1669545190       -0.8228323263
 H          6.3425779721       -2.0542928909       -0.6705062234
 C          4.5752157601       -3.2692826578       -0.4118050095
 H          5.1100939645       -3.8988793256       -1.1259717108
 H          4.5548747460       -3.8028711459        0.5391503031
 C          3.1462814107       -3.1156213578       -0.9358941456
 H          2.7771321332       -4.1070529983       -1.2112778596
 H          3.1525600152       -2.5037368074       -1.8412245816
 C          2.1377777902       -2.5093747771        0.0482452931
 H          1.1368528123       -2.6424349544       -0.3721195921
 H          2.1762462488       -3.0466553302        0.9983084242
 H          6.0120492013       -0.5168033549        1.1899403653
 H          6.1191530611       -2.1928705333        1.7437169281
 H          4.3529613551       -0.7937285746        2.8852009484
 H          3.7406095514       -2.2943557886        2.1668916982
 O          3.3198769195        0.8157786338        1.3550382552
 C          2.5507525620        1.7247899021        0.6507204261
 O          2.7908012676        2.9175660979        0.9302833258
 H         -1.1648252023        0.6124009834       -0.3165292742
 C         -1.3594877481        1.6040430645        0.0540334986
 C         -0.4523532352        2.6228362306       -0.2037564477
 C         -0.7179842305        3.8972397450        0.2817071846
 C         -1.8596365723        4.1411700501        1.0241341610
 C         -2.7397631392        3.1153076124        1.3135049372
 C         -2.4835672660        1.8347969362        0.8320755374
 N         -3.3656940021        0.7843918763        1.1179220063
 S         -2.8434971156       -0.7759439224        1.4623335334
 O         -3.7081559009       -1.2129088616        2.5417845387
 O         -1.4263928953       -0.8205293727        1.7257514646
 C         -3.2871171060       -1.6873663008       -0.0027041007
 C         -2.3553604005       -1.9552354854       -0.9839338527
 C         -2.7591150875       -2.6475187726       -2.1164373270
 C         -4.0762874126       -3.0566130202       -2.2494018371
 C         -5.0005922871       -2.7811813998       -1.2525440104
 C         -4.6044741678       -2.0909837071       -0.1195482899
 H         -5.2850036222       -1.8688240757        0.6856339992
 H         -6.0247836755       -3.1017834645       -1.3553890655
 H         -4.3826135548       -3.5937989923       -3.1332733146
 H         -2.0354541838       -2.8580039775       -2.8878944572
 H         -1.3347253958       -1.6242166804       -0.8666554897
 H         -4.1317441345        1.0413513816        1.7233005573
 H         -3.6179801805        3.2984127238        1.9143656992
 H         -2.0565143131        5.1349070393        1.3972375243
 H         -0.0123632549        4.6929861137        0.0929949495
 C          0.8140487532        2.3409697915       -0.9779203943
 H          1.4368392120        3.2453713494       -0.9322166301
 C          0.5075696967        2.0477795791       -2.4329434314
 C          0.2411037521        3.1931451369       -3.3609904151
 C          1.5140286289        2.4110670268       -3.4810229113
 H          1.6397003635        1.7496199800       -4.3248559821
 H          2.4320238240        2.8766555832       -3.1518655408
 H         -0.5111646712        3.0711963030       -4.1248319203
 H          0.2977011824        4.1916352964       -2.9544714636
 H         -0.0565106917        1.1370238746       -2.5802802292
 O          0.5640762858       -0.6212120911       -1.2723456639
