  62
        -98.93576314
 C         -0.3015796128       -2.1063069061        0.2165587800
 C         -1.1536029831       -1.3929555256        1.0944852167
 C         -2.4106435835       -0.8603940521        0.5382605882
 C         -2.6708415559       -1.0486816546       -0.7675169379
 C         -3.8653211493       -0.5944854532       -1.5679048765
 C         -4.3499468657        0.8430518015       -1.3241763361
 C         -5.6884974998        0.9177922260       -0.5865647682
 H         -6.1644203219        1.8714510625       -0.8253168636
 H         -6.3372452971        0.1261036735       -0.9672443181
 C         -5.6012455621        0.8123810395        0.9350006937
 H         -5.1713575330        1.7328004619        1.3356282521
 H         -6.6211824545        0.7347936301        1.3186946020
 C         -4.7869840851       -0.3704310428        1.4625545532
 H         -5.1195772898       -0.5760820373        2.4821327841
 H         -4.9893997471       -1.2653352348        0.8751675289
 C         -3.2754064642       -0.1021928049        1.5082445765
 H         -3.0841415693        0.9682514211        1.3874958968
 H         -2.8846791415       -0.3735385227        2.4941053016
 H         -4.4741159396        1.3196875655       -2.2982217356
 H         -3.5849164251        1.4061051696       -0.7907718666
 H         -3.5643577547       -0.7113113406       -2.6117731760
 H         -4.6854892243       -1.2972944829       -1.3988116717
 O         -1.8306087952       -1.7516252337       -1.5764543042
 C         -0.6257775283       -2.2794430446       -1.1299433935
 O          0.0154052336       -2.8712749989       -2.0163020529
 H          1.4662143613       -0.7451512608       -1.1374669685
 C          2.1067164447       -0.6017770277       -0.2800074264
 C          2.0199745100       -1.4619504230        0.8053991294
 C          2.8623104300       -1.2511792062        1.8911914447
 C          3.7731027004       -0.2097444229        1.8844974045
 C          3.8362853962        0.6617227562        0.8119157111
 C          2.9884372787        0.4688713690       -0.2721177770
 N          2.9804486867        1.3633785249       -1.3623317254
 S          1.5147082275        2.1106157244       -1.6950751409
 O          0.5842537977        1.1666010478       -2.2564765063
 O          1.8611441302        3.2434070081       -2.5263327181
 C          0.9583949417        2.6679506647       -0.0961829322
 C          1.4151419344        3.8784294780        0.3885577354
 C          1.0694624635        4.2568608779        1.6756980511
 C          0.2969531576        3.4132526453        2.4606480432
 C         -0.1516322690        2.2005796043        1.9607089514
 C          0.1762666092        1.8262657401        0.6675120142
 H         -0.1632186371        0.8914109542        0.2489753286
 H         -0.7364364238        1.5245958171        2.5649735549
 H          0.0415143286        3.7000109824        3.4684800138
 H          1.4110768278        5.2015679690        2.0669547581
 H          2.0170258081        4.5007614642       -0.2539325977
 H          3.7097507112        2.0622938729       -1.3173761444
 H          4.5293590583        1.4891469438        0.8135687313
 H          4.4258285653       -0.0616722514        2.7308305035
 H          2.7878793418       -1.9004060677        2.7508082495
 C          1.0128885161       -2.5863596238        0.8061766385
 H          0.7896136686       -2.8193341040        1.8601814519
 C          1.5528579813       -3.8543649594        0.1635414452
 C          2.6937499118       -3.8547067422       -0.8044508210
 C          2.8852093010       -4.4087505225        0.5736497220
 H          2.9819552338       -5.4773141481        0.6912691457
 H          3.4797732981       -3.8303269007        1.2637668889
 H          2.6384292779       -4.5320171571       -1.6426978922
 H          3.1515493775       -2.9078926279       -1.0471238396
 H          0.7644625871       -4.5747008843       -0.0283448287
 O         -0.8723683765       -1.2057360543        2.3096545624
