  62
        -98.94416270
 C          2.5206969329       -1.1538571750        0.0777362249
 C          3.2271951879       -0.3934905799       -0.8838205362
 C          4.0193135821        0.7245132014       -0.3595982136
 C          4.0453348222        0.9603492551        0.9651735276
 C          4.8259637852        2.0461483418        1.6551756676
 C          4.1146835165        3.4059849797        1.6826934576
 C          4.0601454499        4.1384732409        0.3414260333
 H          3.7309939412        5.1591278326        0.5459467462
 H          5.0639018040        4.1984377332       -0.0801896739
 C          3.1066390430        3.5095480803       -0.6843392254
 H          2.4197001784        2.8302798420       -0.1732834811
 H          2.4982241489        4.2912461402       -1.1453324716
 C          3.8030559316        2.7515201943       -1.8149052766
 H          4.3934028921        3.4485157507       -2.4137467841
 H          3.0353509572        2.3199766415       -2.4631491105
 C          4.7189414182        1.6144832780       -1.3423131731
 H          4.9865209830        1.0069379534       -2.2103344169
 H          5.6302914507        2.0226249775       -0.9061917458
 H          3.0999113031        3.2617573738        2.0608068755
 H          4.6483355040        4.0385204862        2.3956127952
 H          4.9736926619        1.7147456741        2.6851458436
 H          5.8017524720        2.1538856523        1.1809374632
 O          3.3550229385        0.2027756594        1.8578765260
 C          2.5562070314       -0.8526284980        1.4395589457
 O          1.9478662149       -1.4303445720        2.3589045868
 O          3.1934376976       -0.6345336451       -2.1216784448
 C          1.6602807909       -2.3132297360       -0.3888801812
 C          0.2102161971       -2.0580423795       -0.0549124186
 C         -0.6260726568       -3.0159910105        0.5023410263
 C         -1.9513002578       -2.7186439516        0.7712519715
 C         -2.4715524499       -1.4693769099        0.4897869645
 C         -1.6485822485       -0.5074558823       -0.0820360456
 C         -0.3235139140       -0.8098339886       -0.3535467415
 H          0.3155625169       -0.0589856884       -0.8035386799
 N         -2.1668783278        0.7688459419       -0.3673056424
 S         -3.5751479951        0.8588068045       -1.2798632930
 O         -3.7018111081       -0.2740122478       -2.1673442001
 O         -3.5380011922        2.1636936473       -1.9035096732
 C         -4.8765684947        0.8329720780       -0.0656558268
 C         -5.8720766465       -0.1211679215       -0.1432464598
 C         -6.8808966113       -0.1152798794        0.8075941994
 C         -6.8766343398        0.8400427976        1.8123613440
 C         -5.8706166871        1.7929535474        1.8746848198
 C         -4.8597394501        1.7931802402        0.9269557738
 H         -4.0619003874        2.5170245405        0.9378690870
 H         -5.8705062742        2.5339570051        2.6578108285
 H         -7.6619288463        0.8423739904        2.5516687646
 H         -7.6640494755       -0.8547656465        0.7610180779
 H         -5.8307657432       -0.8472983951       -0.9393900001
 H         -1.4770290173        1.4136607922       -0.7250504563
 H         -3.5007302507       -1.2326523486        0.7045993524
 H         -2.5873235025       -3.4714794160        1.2111506177
 H         -0.2398528116       -3.9955952801        0.7304686271
 H          1.7556918840       -2.3237257962       -1.4856700379
 C          2.1896459455       -3.6226143282        0.1567379007
 C          1.9950400667       -4.8952309202       -0.6105025722
 C          3.3546130590       -4.2711650689       -0.5269727126
 H          4.1079305404       -4.7498150604        0.0804436459
 H          3.7494112754       -3.7814113176       -1.4053850029
 H          1.8174111182       -5.8071113596       -0.0606572806
 H          1.4679751415       -4.8366050555       -1.5509182757
 H          2.1585155048       -3.6643794448        1.2395442620
