  62
        -98.93489649
 C          1.7737613299        0.1813603194        0.1657312505
 C          2.8677442498        0.2359943086        1.0572251906
 C          4.2143873499        0.1735605592        0.4594055406
 C          4.3289173000        0.0438650104       -0.8748543395
 C          5.5814974301       -0.0421351287       -1.7101716194
 C          6.7031328100       -0.9488782192       -1.1801698202
 C          7.9256891900       -0.1764143097       -0.6814056894
 H          8.7980783700       -0.8317446296       -0.7330113099
 H          8.1072846200        0.6610490910       -1.3582072486
 C          7.8247180399        0.3450642090        0.7510560211
 H          7.8982945598       -0.4935249416        1.4470229603
 H          8.6876780098        0.9910201489        0.9293138718
 C          6.5508764898        1.1286559087        1.0737629217
 H          6.7614703897        1.7682132779        1.9336184223
 H          6.2863160099        1.7858520894        0.2462542023
 C          5.3553109398        0.2358550483        1.4381674408
 H          5.6991253498       -0.7818718119        1.6454346799
 H          4.9006653597        0.5921647474        2.3679597211
 H          6.3171255800       -1.5959603200       -0.3940321108
 H          7.0245782101       -1.5939892184       -1.9995153408
 H          5.2458628802       -0.3993573378       -2.6863393298
 H          5.9650212101        0.9694536414       -1.8644842085
 O          3.2419289601       -0.0055566388       -1.6978531096
 C          1.9473470300        0.0657912007       -1.2128166796
 O          1.0639330301        0.0125383415       -2.0880983298
 O          2.7282422297        0.3319496574        2.3078051907
 C          0.3652302899        0.2504213389        0.7217533004
 C         -0.4357131101       -0.9740824608        0.3514946992
 C          0.1864550100       -2.2185877807        0.3011439381
 C         -0.5264020300       -3.3540069805       -0.0302953330
 C         -1.8831023600       -3.2791876902       -0.2909497831
 C         -2.5205023800       -2.0475733603       -0.2200032420
 C         -1.7964581401       -0.9045211906        0.0914826192
 H         -2.3109688001        0.0410818993        0.1377275100
 N         -3.8960599500       -1.9358536801       -0.4737009720
 S         -4.8411327801       -0.9788405511        0.5233577989
 O         -4.3225096902       -0.9380109723        1.8704930989
 O         -6.1807069101       -1.5083071010        0.3751547583
 C         -4.7907898901        0.6437609196       -0.2066068896
 C         -4.8100384600        0.7638605109       -1.5821141595
 C         -4.8240720800        2.0313339514       -2.1420063783
 C         -4.8295494400        3.1507358306       -1.3233478973
 C         -4.8162119601        3.0130432094        0.0559407026
 C         -4.7962860402        1.7477976688        0.6224290814
 H         -4.7726049602        1.5955942278        1.6896595413
 H         -4.8197737002        3.8840202188        0.6920739834
 H         -4.8427575700        4.1358275711       -1.7625675064
 H         -4.8310647499        2.1425316024       -3.2143993582
 H         -4.8045720299       -0.1260463685       -2.1889539804
 H         -4.3571229200       -2.8077464799       -0.6905980428
 H         -2.4431622399       -4.1662588400       -0.5456113839
 H         -0.0238858200       -4.3085425604       -0.0777622739
 H          1.2440292299       -2.2846521109        0.5175474181
 H          0.4814955098        0.2575304578        1.8166964704
 C         -0.2954892701        1.5461728592        0.2956078616
 C         -1.2695350202        2.2419439884        1.1971617321
 C          0.0983418598        2.8160156986        0.9870805928
 H          0.1968371298        3.7153858692        0.3983133036
 H          0.8167974297        2.7381390379        1.7901178928
 H         -2.1107703502        2.7482454988        0.7482100225
 H         -1.4889699803        1.7812834775        2.1489905017
 H         -0.4667123100        1.5894051002       -0.7742931284
