  62
        -98.94208763
 C         -1.4702297694       -1.1198278988        0.6347482305
 C         -2.4130855493       -0.9131747289       -0.4013476696
 C         -2.9580737991        0.4514934812       -0.4979477998
 C         -2.5118554991        1.4246030412        0.3136352701
 C         -2.9425001489        2.8661820313        0.2968849999
 C         -4.2353356989        3.1462407515        1.0755237098
 C         -5.5171616589        2.6398627216        0.4130493198
 H         -6.3545793289        3.0900212317        0.9497840697
 H         -5.5581672688        2.9990450714       -0.6157216503
 C         -5.6799399091        1.1137376716        0.4342567400
 H         -5.0021821992        0.6859331716        1.1764477601
 H         -6.6964756891        0.8599641617        0.7428920599
 C         -5.4311035791        0.4321367714       -0.9111685099
 H         -5.5385622092       -0.6469429586       -0.7749852298
 H         -6.1843124590        0.7572856114       -1.6322582600
 C         -4.0413326990        0.6967444512       -1.5051178699
 H         -3.9802973889        1.7159573711       -1.8870767400
 H         -3.8837177591        0.0041697810       -2.3358649798
 H         -4.1432517190        2.7097417916        2.0726963398
 H         -4.3156910088        4.2294357315        1.1923875296
 H         -3.0540187088        3.1999039012       -0.7354391702
 H         -2.1303769989        3.4351862613        0.7551070898
 O         -1.5691498691        1.1991463913        1.2657828802
 C         -1.0330646793       -0.0623162288        1.4385160404
 O         -0.1747430393       -0.1309710687        2.3434257804
 O         -2.8023570793       -1.7900488489       -1.2147279095
 C         -0.7445846395       -2.4304840089        0.9147699607
 C          0.7140772305       -2.2682982691        0.5633570507
 C          1.7189798904       -2.8288911091        1.3428565809
 C          3.0508243505       -2.6464435193        1.0145697309
 C          3.4060353906       -1.8684126594       -0.0729048292
 C          2.4079220007       -1.2935517194       -0.8497379793
 C          1.0747967607       -1.5236146393       -0.5498732393
 H          0.3135900207       -1.0682402293       -1.1662216194
 N          2.7079695709       -0.4255795796       -1.9236406594
 S          2.2800594010        1.1775815305       -1.6577428796
 O          0.8623566610        1.2773964306       -1.4298570597
 O          2.8034560812        1.9029387103       -2.7953959497
 C          3.1987528710        1.6213545206       -0.1939730396
 C          4.4416002811        2.2059086004       -0.3497527697
 C          5.2035778910        2.4757718905        0.7749383704
 C          4.7171402909        2.1459368907        2.0313864804
 C          3.4700248809        1.5571853408        2.1701546504
 C          2.6988054209        1.2888043308        1.0491684104
 H          1.7240154208        0.8343779109        1.1386194904
 H          3.0817599508        1.2967032910        3.1417949304
 H          5.3112155509        2.3496893207        2.9082266904
 H          6.1722863811        2.9368915204        0.6689516403
 H          4.7759277511        2.4461827802       -1.3462477297
 H          3.6770469309       -0.4599372898       -2.2123959893
 H          4.4444028306       -1.6943350396       -0.3117771891
 H          3.8205310804       -3.0904237193        1.6267657010
 H          1.4514247203       -3.3919747889        2.2247765009
 H         -0.7965260996       -2.5846508087        2.0065394507
 C         -1.3651589396       -3.6518099589        0.2566906408
 C         -0.8548009696       -4.2219635991       -1.0287947891
 C         -0.6463858597       -4.9684615290        0.2528604610
 H         -1.2228050698       -5.8643945189        0.4265041911
 H          0.3554759902       -5.0006606590        0.6522516111
 H         -1.5815964396       -4.5850074491       -1.7389580891
 H         -0.0011704595       -3.7464204193       -1.4881543391
 H         -2.4385619596       -3.6872862088        0.4018063408
