  62
        -98.93700401
 C         -1.8017670617       -0.9821950017        0.7635383071
 C         -2.0454508262       -0.3208270778       -0.4630185949
 C         -3.4560169459       -0.2236910353       -0.8782260507
 C         -4.4127120485       -0.7609698065       -0.1020790805
 C         -5.9000255392       -0.8121779313       -0.3478827266
 C         -6.5737707618        0.4613208112       -0.8780514928
 C         -5.9448751531        1.7778112071       -0.3986862296
 H         -6.7311129544        2.4215159504        0.0004053896
 H         -5.2407068800        1.5837507763        0.4122635441
 C         -5.2349466017        2.5430332703       -1.5182561419
 H         -5.8589465696        2.5097186113       -2.4141001778
 H         -5.1430043374        3.5911477730       -1.2232873098
 C         -3.8321360527        2.0465140398       -1.8666697387
 H         -3.1400941567        2.2876602884       -1.0550283596
 H         -3.4921151118        2.5936336695       -2.7492075887
 C         -3.7138922971        0.5392745952       -2.1455473020
 H         -4.5890363224        0.1652654904       -2.6712677594
 H         -2.8336832597        0.3832293328       -2.7748203071
 H         -6.5757677512        0.4461259757       -1.9670326830
 H         -7.6175159021        0.4204799744       -0.5619048248
 H         -6.1029686080       -1.6374028332       -1.0365580776
 H         -6.3374128661       -1.0834010239        0.6159850459
 O         -4.1286656250       -1.3974330233        1.0705481607
 C         -2.8308230618       -1.5153551245        1.5363785539
 O         -2.7268781241       -2.1014529011        2.6336560573
 H          2.0966283206       -0.2435999039        0.4409504926
 C          1.5208910661        0.5259537251        0.9255652064
 C          0.2532027553        0.2465495487        1.4092744237
 C         -0.4553047652        1.2614342090        2.0481174219
 C          0.0861377202        2.5247617466        2.1807743829
 C          1.3497261321        2.8019917034        1.6886216652
 C          2.0695452853        1.7949221875        1.0581902316
 N          3.3356395029        2.0548035829        0.5211526631
 S          4.5182226198        0.8812841107        0.4504296487
 O          4.5177497309        0.0464658829        1.6292906308
 O          5.7393987325        1.6181661131        0.2021251514
 C          4.1219029069       -0.0883097855       -0.9894507432
 C          3.5897418483        0.5348581889       -2.1004082525
 C          3.3090675440       -0.2267633664       -3.2234229667
 C          3.5697619901       -1.5885012934       -3.2202296912
 C          4.1119839150       -2.1980499416       -2.0995131222
 C          4.3924940972       -1.4423982487       -0.9720793016
 H          4.8043886991       -1.8765910931       -0.0746280091
 H          4.3138847550       -3.2575700748       -2.0989489465
 H          3.3466293111       -2.1787459436       -4.0950907526
 H          2.8826413517        0.2431922483       -4.0950448923
 H          3.3902992615        1.5929203608       -2.0690875378
 H          3.7073899260        2.9757727850        0.6972454617
 H          1.7725811013        3.7901154177        1.7878420973
 H         -0.4780774164        3.3022447177        2.6739980354
 H         -1.4425541198        1.0451971470        2.4346752448
 C         -0.3800579458       -1.1171309852        1.2766855887
 H         -0.4576119291       -1.5555472505        2.2828339025
 C          0.4021363235       -2.0647558665        0.3908759700
 C          1.5393221739       -2.8618553980        0.9528802380
 C          0.2508447225       -3.5403999766        0.5995322803
 H          0.2275123772       -4.1841502865       -0.2666455004
 H         -0.3974753785       -3.8631416825        1.4014342404
 H          2.4001806679       -3.0393704669        0.3263657835
 H          1.7780306800       -2.7272608277        1.9973232900
 H          0.4826313858       -1.7085741990       -0.6299956814
 O         -1.1331110423        0.1592928462       -1.1833135538
