  62
        -98.94386995
 C          1.8048196203        1.1840107597        0.3392053699
 C          2.0234374502        0.2235403194       -0.6773781499
 C          3.4240441402        0.0307665395       -1.0828998601
 C          4.3876067402        0.7696685599       -0.5032521004
 C          5.8563260302        0.6345615700       -0.7808413106
 C          6.5126157705       -0.3657801696        0.1811313395
 C          5.7658907207       -1.6949304997        0.2945684900
 H          6.3347484509       -2.3305720694        0.9766102401
 H          4.7913130508       -1.5199450297        0.7562508801
 C          5.5670206206       -2.4272660401       -1.0397785398
 H          6.2614300904       -2.0364105902       -1.7843926200
 H          5.8041782308       -3.4838244100       -0.8981858595
 C          4.1422283205       -2.3620971805       -1.5936134495
 H          3.4318573207       -2.6661279404       -0.8200533593
 H          4.0614479905       -3.0838032007       -2.4110762493
 C          3.7003329302       -0.9991691807       -2.1416067098
 H          4.4397091300       -0.6319625608       -2.8564047200
 H          2.7535055301       -1.1463373310       -2.6699641596
 H          7.5347357205       -0.5487656595       -0.1551305806
 H          6.5571652406        0.0871917607        1.1741888594
 H          5.9978939500        0.3114657898       -1.8102300306
 H          6.3229613600        1.6120556901       -0.6482673310
 O          4.1342186602        1.7010548201        0.4513026994
 C          2.8445800602        1.9198492200        0.9075414895
 O          2.7550105302        2.7794575002        1.8072832093
 H         -2.0516199696        0.2669246490        0.3207355108
 C         -1.4573551194       -0.2903794407        1.0245554308
 C         -0.1967632094        0.1578350196        1.3861403805
 C          0.5385001309       -0.5887268500        2.3041363106
 C          0.0313721911       -1.7597128400        2.8311391610
 C         -1.2210053388       -2.2124714903        2.4535883513
 C         -1.9677135391       -1.4724487306        1.5460191412
 N         -3.2600393891       -1.8809310509        1.1832836916
 S         -3.7659033794       -1.7904249614       -0.4120498784
 O         -4.9091141593       -2.6787493816       -0.4664304579
 O         -2.6983085995       -2.0779441515       -1.3393297985
 C         -4.3433011897       -0.1192463516       -0.6149449987
 C         -3.9480133900        0.6032741982       -1.7229804990
 C         -4.4465767802        1.8847944681       -1.8997888792
 C         -5.3268410302        2.4173551282       -0.9698971892
 C         -5.7119583499        1.6784987684        0.1387404710
 C         -5.2208206596        0.3955063685        0.3190115413
 H         -5.5014401294       -0.2115864313        1.1631867015
 H         -6.3941286498        2.0981323685        0.8602746810
 H         -5.7118865503        3.4151106481       -1.1104258794
 H         -4.1457699305        2.4607062579       -2.7608380094
 H         -3.2516328600        0.1534467681       -2.4134554790
 H         -3.5593643089       -2.7481219109        1.6059424418
 H         -1.6169657786       -3.1313644602        2.8590693116
 H          0.6159706214       -2.3294163997        3.5380498510
 H          1.5187842809       -0.2356971298        2.5959263903
 C          0.3989085503        1.4381496796        0.8529006801
 H          0.5096424103        2.1353343798        1.6967316699
 C         -0.4459006400        2.1019340192       -0.2139889100
 C         -1.5652775901        3.0160250591        0.1822919200
 C         -0.3150470703        3.5798172391       -0.4214036404
 H         -0.3542843305        3.9635442088       -1.4296689105
 H          0.3736980498        4.1097211594        0.2206576994
 H         -2.4674921902        3.0145376288       -0.4101933399
 H         -1.7304487799        3.1699974793        1.2378162800
 H         -0.5728254300        1.4808182189       -1.0937846598
 O          1.1005206903       -0.4395361409       -1.2190092695
