  62
        -98.94376853
 C         -1.4790430074       -1.2617269629        0.7097611630
 C         -2.5320295355       -1.1770723427       -0.2330846421
 C         -3.4244770533       -0.0145079543       -0.0905387283
 C         -3.1555684727        0.9209654757        0.8377461290
 C         -3.9480508531        2.1793378760        1.0429259822
 C         -3.4199381312        3.3334874578        0.1788855733
 C         -3.2137631873        2.9654047488       -1.2900393653
 H         -2.8571207140        3.8605386257       -1.8043197810
 H         -2.4245718613        2.2136864664       -1.3661833477
 C         -4.4688409748        2.4331854073       -1.9942403120
 H         -5.3580938986        2.6958986319       -1.4200579906
 H         -4.5581203368        2.9170668179       -2.9691529766
 C         -4.4526376523        0.9240587926       -2.2421129382
 H         -3.5199892330        0.6429131892       -2.7377955116
 H         -5.2709286589        0.6819342444       -2.9255640035
 C         -4.6228168439        0.0448799586       -0.9969742941
 H         -4.7885091530       -0.9807469299       -1.3396148187
 H         -5.5056496278        0.3666908130       -0.4402436864
 H         -2.4627042682        3.6665114578        0.5857538930
 H         -4.1236924970        4.1648415785        0.2492315862
 H         -4.9917399358        1.9844759882        0.8025863563
 H         -3.8759895065        2.4620141064        2.0944795742
 O         -2.0934147750        0.8408999036        1.6790765861
 C         -1.2444326933       -0.2501802040        1.6470385176
 O         -0.3287530741       -0.2134432492        2.4922351689
 O         -2.7443650006       -2.0158294436       -1.1472173951
 C         -0.4848060484       -2.4139363794        0.7465182556
 C          0.6181070523       -2.1137528126       -0.2382682589
 C          0.4332207475       -2.2343697540       -1.6114012216
 C          1.4442193103       -1.8824729687       -2.4880201586
 C          2.6548722100       -1.4022496987       -2.0178968446
 C          2.8437492602       -1.2705990016       -0.6493566553
 C          1.8316558754       -1.6289973281        0.2298236463
 H          1.9749977388       -1.5024801792        1.2948181191
 N          4.0672419887       -0.7477273509       -0.1670405062
 S          4.2919960152        0.8893204948       -0.4497664145
 O          4.3206502276        1.1110620173       -1.8723541615
 O          5.4825414291        1.2547144759        0.2826259618
 C          2.8619782438        1.6735932384        0.2704689002
 C          1.6914041829        1.7283613297       -0.4587504842
 C          0.5612607343        2.2654960266        0.1346959869
 C          0.6163986203        2.7287948143        1.4392215152
 C          1.7992447768        2.6653399646        2.1580114482
 C          2.9331401027        2.1280985450        1.5719003841
 H          3.8732310376        2.0597850125        2.0960565717
 H          1.8349735087        3.0209876821        3.1751207644
 H         -0.2722275958        3.1265496105        1.9035558763
 H         -0.3633866306        2.3082859411       -0.4191731705
 H          1.6812117897        1.3562002866       -1.4708478054
 H          4.2039367736       -0.9222797160        0.8196353813
 H          3.4438690868       -1.1032433566       -2.6885386164
 H          1.2874149856       -1.9793604847       -3.5518091982
 H         -0.5188540296       -2.5776471004       -1.9854352249
 H         -0.0451189471       -2.3926722913        1.7527725933
 C         -1.1090888853       -3.7762339204        0.5311529220
 C         -0.3482009563       -4.9920881773        0.9638909367
 C         -1.5692410200       -4.5632600783        1.7196522384
 H         -2.4682745826       -5.1540460349        1.6286354448
 H         -1.4355159237       -4.1218494781        2.6968335387
 H         -0.4059488573       -5.8800987495        0.3535433122
 H          0.6145285649       -4.8410071338        1.4289601838
 H         -1.7057851918       -3.8485943450       -0.3673723578
