  62
        -98.94384843
 C          1.3140466264        1.4023050972        0.6448947927
 C          2.0665036776        0.9732869762       -0.4768962463
 C          3.0419200293       -0.0984725092       -0.2238364410
 C          3.1602196999       -0.6128483501        1.0124582928
 C          4.0914476511       -1.7245789327        1.3980401630
 C          3.4065895160       -3.0939274713        1.2959473292
 C          2.6790242333       -3.3333173620       -0.0277248565
 H          2.2908835529       -4.3545859415       -0.0014155216
 H          1.8081206945       -2.6754579615       -0.0916365138
 C          3.5518163001       -3.1543545116       -1.2777277677
 H          4.6064715854       -3.2242516421       -1.0069713422
 H          3.3380224678       -3.9737171498       -1.9674863403
 C          3.3075362764       -1.8540739329       -2.0463154763
 H          3.7790463797       -1.9464150603       -3.0286975022
 H          2.2333913676       -1.7263972669       -2.2078244653
 C          3.8536439760       -0.5777466007       -1.3933631510
 H          3.8093889371        0.2220678624       -2.1384720093
 H          4.8974011183       -0.7263556943       -1.1085771136
 H          4.1637371890       -3.8675307209        1.4401595314
 H          2.6752361136       -3.1789976829        2.1032034772
 H          4.4068916458       -1.5644540030        2.4308731124
 H          4.9674233262       -1.6964624794        0.7528002825
 O          2.4060966885       -0.1931851132        2.0601459409
 C          1.4410032942        0.7870688221        1.8918685652
 O          0.7664950111        1.0191611196        2.9161913036
 O          1.9410357359        1.4511878855       -1.6338576009
 C          0.2153911946        2.4438228323        0.5155253948
 C         -0.6750261906        2.1032589923       -0.6565180426
 C         -1.1681471163        3.0311312994       -1.5639606106
 C         -1.9990255192        2.6233080998       -2.5943539196
 C         -2.3616711815        1.2968279813       -2.7395369840
 C         -1.8679984208        0.3593933368       -1.8382228275
 C         -1.0452691650        0.7734972681       -0.8059566352
 H         -0.6432131776        0.0376745547       -0.1277907345
 N         -2.1794887524       -1.0006679836       -1.9588582377
 S         -2.1411155191       -2.0235213842       -0.6447307733
 O         -0.7848557803       -2.2530775498       -0.2139058463
 O         -2.8682406034       -3.1929665042       -1.0908907733
 C         -3.0796570509       -1.1919492691        0.6246446695
 C         -4.4268209148       -0.9907787312        0.3918039265
 C         -5.1816398708       -0.3234084070        1.3417473659
 C         -4.5788674626        0.1352133541        2.5037417595
 C         -3.2279891460       -0.0792773531        2.7264632870
 C         -2.4692402720       -0.7506242382        1.7802539949
 H         -1.4147181463       -0.9259561403        1.9305610539
 H         -2.7492844098        0.2766043407        3.6251196821
 H         -5.1636228379        0.6604735505        3.2422019178
 H         -6.2338412897       -0.1598730314        1.1737172278
 H         -4.8619277812       -1.3716813861       -0.5176744820
 H         -2.8934784852       -1.2365154796       -2.6301872660
 H         -3.0024793259        0.9835745816       -3.5491479514
 H         -2.3698372279        3.3527566808       -3.2984071094
 H         -0.8882685456        4.0683374701       -1.4810889157
 H         -0.3922336682        2.3199557621        1.4284921078
 C          0.6995472652        3.8870615752        0.5152682782
 C          2.0652839793        4.2520991460        1.0139601418
 C          1.7408302846        4.3799313611       -0.4425848388
 H          1.6289352896        5.3716062645       -0.8562840643
 H          2.1610933621        3.6612252698       -1.1276332586
 H          2.1717648251        5.1513881578        1.6023284572
 H          2.7181292869        3.4481276609        1.3228626237
 H         -0.0960336810        4.5818146232        0.7660054833
