  62
        -98.93454261
 C          2.4610926127        1.2584452788        0.3041841653
 C          2.5985961461        0.1146453094       -0.5137608007
 C          3.8379088918       -0.6696968464       -0.3452437534
 C          4.7394040205       -0.2795035020        0.5737984674
 C          6.0669030441       -0.9048429478        0.9214526478
 C          6.0984285478       -2.4361188907        1.0438835949
 C          6.8597748296       -3.1215261170       -0.0921356876
 H          7.7430526450       -2.5243781205       -0.3282533715
 H          7.2095357608       -4.0948522098        0.2591147298
 C          6.0517865228       -3.3543345418       -1.3675872720
 H          5.3197444380       -4.1456215449       -1.1921748131
 H          6.7416542031       -3.7143035646       -2.1345449276
 C          5.3146852238       -2.1273172196       -1.9079990638
 H          5.9402250208       -1.2391391454       -1.8260483909
 H          5.1313721615       -2.2902682192       -2.9722068066
 C          3.9573951495       -1.8783118322       -1.2329873269
 H          3.1870735274       -1.7345554815       -1.9971093313
 H          3.6541890616       -2.7632483421       -0.6661534530
 H          5.0830740812       -2.8240191735        1.1083345457
 H          6.5988304826       -2.6841982516        1.9813447362
 H          6.8066672221       -0.5765456856        0.1870037162
 H          6.3523131266       -0.4507328313        1.8731154189
 O          4.5580844098        0.8307708686        1.3466854068
 C          3.4318570070        1.6233315651        1.2348687091
 O          3.4077155835        2.6024478381        2.0081563360
 H         -1.0905915983        1.8844229434       -1.3003163259
 C         -1.1078023232        1.3030389533       -0.3916384425
 C         -0.0143569034        1.3144956072        0.4586458075
 C         -0.0758509367        0.5608883718        1.6282754328
 C         -1.1928992703       -0.1951091464        1.9247973707
 C         -2.2761763409       -0.2178409378        1.0630047164
 C         -2.2316547256        0.5388480525       -0.0986513333
 N         -3.3219790615        0.5160954979       -0.9821201766
 S         -4.8740412007        0.6921314812       -0.3747031134
 O         -5.6536600995        1.2047579789       -1.4802721278
 O         -4.8828262578        1.4797423073        0.8361038321
 C         -5.3936736533       -0.9745962853       -0.0247079134
 C         -5.8736400732       -1.2967044548        1.2295355086
 C         -6.2857629659       -2.5971549152        1.4760521072
 C         -6.2122063541       -3.5469324067        0.4688001039
 C         -5.7300593118       -3.2066253875       -0.7864145680
 C         -5.3177686600       -1.9082333058       -1.0395965136
 H         -4.9402772455       -1.6042297321       -2.0016154676
 H         -5.6739318000       -3.9480824108       -1.5671361179
 H         -6.5326977880       -4.5583538132        0.6629152034
 H         -6.6614488176       -2.8635787246        2.4509606622
 H         -5.9080947221       -0.5266681774        1.9838947548
 H         -3.1882054858        1.0662355418       -1.8178115445
 H         -3.1489608030       -0.8093202027        1.2861841506
 H         -1.2214391248       -0.7764083294        2.8340936944
 H          0.7710173570        0.5764522762        2.3015277355
 C          1.2253522255        2.1320136461        0.1875484021
 H          1.3117831776        2.8865715250        0.9832581098
 C          1.2149455195        2.8388783796       -1.1518389409
 C          0.5101985742        4.1523905289       -1.3063752582
 C          2.0078898592        4.0999064606       -1.3091876906
 H          2.5289038853        4.2693778365       -2.2394950890
 H          2.5365829610        4.4642470037       -0.4402903253
 H          0.0182629222        4.5615810123       -0.4366300317
 H          0.0049451750        4.3628606066       -2.2373361040
 H          1.2044059757        2.1483584170       -1.9875333867
 O          1.7310164531       -0.2385297935       -1.3551095560
