  62
        -98.94035159
 C         -2.4852134541       -1.2693328482       -0.0532079751
 C         -2.3373601112       -0.0455006404       -0.7494568539
 C         -3.5779943774        0.7037522471       -0.9871269333
 C         -4.7553777578        0.1995400999       -0.5752993966
 C         -6.1049446512        0.8395780031       -0.7572415800
 C         -6.4508414409        1.8782963475        0.3187220998
 C         -5.6836926181        3.1976615122        0.2214275399
 H         -5.7709725384        3.5941323289       -0.7905287030
 H         -6.1761109721        3.9044160018        0.8921884374
 C         -4.2018671821        3.1000796007        0.6110319905
 H         -4.0306478853        2.1778064741        1.1710106554
 H         -3.9432336564        3.9287078760        1.2740466620
 C         -3.2314386798        3.1464136787       -0.5694952664
 H         -2.2147633649        3.0261467582       -0.1849626119
 H         -3.2931490249        4.1215850353       -1.0578982314
 C         -3.4677914925        2.0563787943       -1.6230791516
 H         -4.3618596624        2.2804686054       -2.2046088757
 H         -2.6061534835        2.0378547981       -2.2953782917
 H         -7.5175034490        2.0961826169        0.2296111045
 H         -6.2833732085        1.4315521848        1.3013774935
 H         -6.1613806551        1.3016193370       -1.7430807452
 H         -6.8403221048        0.0338784751       -0.7070225244
 O         -4.8566064848       -0.9970462669        0.0627040130
 C         -3.7290242723       -1.7442771224        0.3626048956
 O         -3.9617069743       -2.7959969027        0.9922796732
 O         -1.2314466567        0.4026136275       -1.1523115376
 C         -1.2604989598       -2.1016528314        0.2842714526
 C         -0.3063289172       -1.2664890040        1.1033670767
 C         -0.7757925594       -0.6936251308        2.2833640395
 C          0.0444476919        0.1034935110        3.0564953591
 C          1.3479847873        0.3525651439        2.6636601637
 C          1.8307773272       -0.2231975210        1.4950854565
 C          1.0080649967       -1.0393057778        0.7292024911
 H          1.4029615452       -1.4664863059       -0.1762169385
 N          3.1692143744       -0.0167923534        1.1056332019
 S          3.5273811556        0.3601097067       -0.5027447116
 O          2.8787110987        1.5945229194       -0.8870859280
 O          3.2786008848       -0.7911516446       -1.3306651401
 C          5.2864002216        0.6205479782       -0.3557213449
 C          5.7873620635        1.9075917420       -0.3154971410
 C          7.1541652918        2.0916497092       -0.1755601967
 C          7.9917656948        0.9911873631       -0.0758093096
 C          7.4742287054       -0.2951087215       -0.1180549576
 C          6.1090301381       -0.4856424551       -0.2592215268
 H          5.6625810157       -1.4650903616       -0.3053907027
 H          8.1289907586       -1.1482030209       -0.0423562439
 H          9.0549299637        1.1367401481        0.0329145735
 H          7.5593107358        3.0903113791       -0.1455154388
 H          5.0985694828        2.7323569162       -0.4049290358
 H          3.6284497079        0.6586584980        1.7041317403
 H          1.9862893750        0.9879613634        3.2593729376
 H         -0.3350686146        0.5445920960        3.9661189782
 H         -1.8004473640       -0.8780226145        2.5787472697
 H         -1.6185481877       -2.9307034312        0.9122154295
 C         -0.6456656660       -2.6754569573       -0.9740648052
 C          0.1602699314       -3.9365713691       -0.9061824416
 C         -1.1981003963       -3.9480748310       -1.5389212503
 H         -1.2688770721       -4.0474300732       -2.6116959035
 H         -2.0104331804       -4.4159699714       -1.0016428485
 H          1.0272792892       -4.0249883602       -1.5434075362
 H          0.2726081904       -4.4045900385        0.0601468077
 H         -0.3352513949       -1.9100423778       -1.6770806496
