  62
        -98.94476926
 C          2.0356927099        1.3406684547        0.0841959805
 C          2.5857338211        0.5916753854        1.1525933071
 C          3.8351057900       -0.1192187924        0.8631825518
 C          4.3797643952       -0.0369462149       -0.3646163339
 C          5.6663434080       -0.6795625942       -0.8069347916
 C          5.5149887478       -2.1411940192       -1.2497947629
 C          5.2714299298       -3.1411667077       -0.1188549325
 H          5.3988858987       -4.1400284976       -0.5408574465
 H          6.0347107387       -3.0126212623        0.6492595152
 C          3.8773939638       -3.0491002275        0.5174927105
 H          3.4586806967       -4.0526391893        0.6236707222
 H          3.2096203701       -2.4944061934       -0.1464450866
 C          3.8543929565       -2.3996595023        1.9014551328
 H          4.4140555527       -3.0194487114        2.6054759950
 H          2.8167604520       -2.3575724441        2.2430787434
 C          4.4260498564       -0.9761304437        1.9419939336
 H          4.1641781188       -0.5291748857        2.9041741911
 H          5.5117482213       -1.0049980157        1.8537227555
 H          6.4371527065       -2.4237136263       -1.7627654977
 H          4.6994201064       -2.2042401738       -1.9740693025
 H          6.4027303233       -0.6154589723       -0.0053926225
 H          6.0266515463       -0.0981221130       -1.6582792700
 O          3.8109581518        0.6775270150       -1.3703727072
 C          2.6153018590        1.3591099278       -1.1849183850
 O          2.1935295611        1.9323096300       -2.2059651571
 O          2.0559225776        0.5206211709        2.2949578375
 C          0.7369459918        2.0935581642        0.3207633379
 C         -0.3675417617        1.4140186501       -0.4506504699
 C         -1.0751893992        2.0131731661       -1.4830355001
 C         -2.0528900337        1.3058632945       -2.1631069314
 C         -2.3541355120        0.0008442358       -1.8216235893
 C         -1.6644564848       -0.6014691486       -0.7756241191
 C         -0.6829696495        0.1057204083       -0.1000674428
 H         -0.1403986225       -0.3643587426        0.7105735237
 N         -1.9866355265       -1.9173731946       -0.4006018900
 S         -3.6113915470       -2.2937690265       -0.2449689858
 O         -3.6648948124       -3.3493234905        0.7422141886
 O         -4.1592642094       -2.6169312255       -1.5388865241
 C         -4.3765438890       -0.8068428006        0.3786772615
 C         -5.3525745807       -0.1718064749       -0.3617021645
 C         -5.9036501693        1.0035177905        0.1232512271
 C         -5.4677271678        1.5230078595        1.3319879834
 C         -4.4896331136        0.8703842729        2.0669674899
 C         -3.9368244587       -0.3060215892        1.5881578101
 H         -3.1770546103       -0.8381363155        2.1384023052
 H         -4.1517427082        1.2750618434        3.0075630872
 H         -5.8915984995        2.4418167260        1.7052346775
 H         -6.6658326518        1.5118012192       -0.4449303272
 H         -5.6580948962       -0.6077386566       -1.2988673072
 H         -1.4545247761       -2.2602756006        0.3855439749
 H         -3.1039694238       -0.5652495826       -2.3501581898
 H         -2.5868583412        1.7786363263       -2.9730267357
 H         -0.8518592647        3.0279011272       -1.7665222686
 H          0.5245394364        1.9674125743        1.3922741218
 C          0.8823744641        3.5696865108        0.0252882766
 C         -0.0809520138        4.5436406647        0.6331302840
 C          1.3353360697        4.4881302925        1.1190860711
 H          2.0017122337        5.2992470040        0.8666297510
 H          1.5286126850        4.0524780251        2.0886080058
 H         -0.3891086726        5.3972276212        0.0490634381
 H         -0.8526605873        4.1458164675        1.2743452509
 H          1.2505135464        3.7676325489       -0.9742227689
