  62
        -98.94423015
 C          2.0211957285        1.3481241997        0.1459812677
 C          2.2140646370        0.4306476978        1.2094955948
 C          3.0011228082       -0.7688792418        0.9002019151
 C          3.4834245771       -0.9331198409       -0.3452544536
 C          4.2956265063       -2.1091637190       -0.8037771686
 C          3.4077277188       -3.2142050753       -1.3910921857
 C          2.2136854431       -3.5784188587       -0.5093947911
 H          1.5335952207       -2.7249320512       -0.4639846390
 H          1.6828835220       -4.3929008492       -1.0063152500
 C          2.5815889538       -4.0100455842        0.9170716245
 H          2.0011589133       -4.8983334681        1.1757477633
 H          3.6344919041       -4.2908456220        0.9607135181
 C          2.2940421155       -2.9610011170        1.9931575382
 H          1.2696280104       -2.5948295885        1.8861257705
 H          2.3682535813       -3.4470963096        2.9697213758
 C          3.2370534699       -1.7510109929        2.0129390395
 H          4.2743285610       -2.0923236527        2.0144195760
 H          3.0563392659       -1.2017797844        2.9416486724
 H          3.0283484806       -2.8753229522       -2.3576174546
 H          4.0247399688       -4.0988762182       -1.5587294652
 H          4.9891723147       -1.7656392084       -1.5732388955
 H          4.8672819501       -2.4961598724        0.0377301210
 O          3.2498743993       -0.0508786414       -1.3476818588
 C          2.4950214962        1.0960164531       -1.1424417677
 O          2.3378879649        1.7830926404       -2.1681665892
 O          1.7548576437        0.6133641480        2.3701181836
 C          1.2237261438        2.6083518060        0.4449527127
 C         -0.1880383731        2.4122737034       -0.0515074666
 C         -0.6179168626        2.8310354166       -1.3043540682
 C         -1.9181210015        2.5868503293       -1.7118547207
 C         -2.8122769902        1.9288204855       -0.8860905836
 C         -2.3872064278        1.4931060166        0.3628572864
 C         -1.0826547049        1.7351342110        0.7683843299
 H         -0.7453530270        1.3887965725        1.7366209176
 N         -3.2824691070        0.8336972508        1.2243061573
 S         -4.2329381089       -0.4106658840        0.6402602694
 O         -5.2334383594        0.1264090523       -0.2467497258
 O         -4.7208907945       -1.0919026409        1.8171277270
 C         -3.1191463363       -1.4687617311       -0.2634165990
 C         -3.0219254339       -1.3538720932       -1.6351180716
 C         -2.1155198550       -2.1556564011       -2.3106054357
 C         -1.3285653585       -3.0535796068       -1.6069839511
 C         -1.4401214768       -3.1595443584       -0.2287159980
 C         -2.3391909354       -2.3558171910        0.4522382114
 H         -2.4612565478       -2.4145126900        1.5221165786
 H         -0.8281696120       -3.8615002924        0.3149822944
 H         -0.6250660940       -3.6768506987       -2.1360520464
 H         -2.0255237296       -2.0766957327       -3.3820959710
 H         -3.6589157983       -0.6530864779       -2.1486075610
 H         -2.8711940888        0.5767862908        2.1099053121
 H         -3.8317032522        1.7499994524       -1.1869652519
 H         -2.2425617501        2.9197123744       -2.6861775691
 H          0.0727063297        3.3303203890       -1.9638925035
 H          1.1820598722        2.6650400236        1.5415406362
 C          1.8805960089        3.8688021663       -0.0744564544
 C          1.4090966156        5.1951202653        0.4394772812
 C          2.7527340952        4.6693928281        0.8437665521
 H          3.6354234247        5.1384880263        0.4356303645
 H          2.8781199743        4.3124227441        1.8557587611
 H          1.3668603494        6.0284464270       -0.2447831917
 H          0.6202297434        5.1917273973        1.1767045763
 H          2.1845413327        3.8065697124       -1.1110374038
