  62
        -98.94172040
 C          1.7173720703        0.1375603100        0.4263014608
 C          2.8226594205        0.8860651496        0.9079868811
 C          4.1410558903        0.2499307994        0.7919129509
 C          4.2247821000       -0.9980133805        0.2971097405
 C          5.5058768099       -1.7445227207        0.0656860903
 C          6.0415224000       -1.4992272603       -1.3519891696
 C          6.0938230903       -0.0231220602       -1.7465592691
 H          6.5149739904        0.0296277401       -2.7529064691
 H          5.0746779704        0.3661087401       -1.8055212090
 C          6.9194403305        0.8586999793       -0.7992189187
 H          7.5783966603        0.2353580189       -0.1937604389
 H          7.5542057007        1.5159746694       -1.3971921485
 C          6.0871783907        1.7563187992        0.1183828615
 H          5.3618111508        2.3164782295       -0.4772588683
 H          6.7586151708        2.4830706388        0.5832241118
 C          5.3349686305        1.0408022289        1.2475019213
 H          6.0265923403        0.4068692086        1.8059826211
 H          4.9456334406        1.8063683688        1.9250294115
 H          7.0408818999       -1.9323840605       -1.4231744797
 H          5.3942176699       -2.0202657199       -2.0614645798
 H          6.2421357399       -1.4302722111        0.8030038504
 H          5.3104052896       -2.8107969307        0.1913906599
 O          3.1388761599       -1.7108525401       -0.0930086898
 C          1.8586163000       -1.1679083098       -0.0470916696
 O          0.9721050199       -1.9475664995       -0.4409562200
 H         -1.8171043698       -0.4213528588       -0.7144269895
 C         -1.7243185599       -0.6563472991        0.3318991304
 C         -0.6696776698       -0.1542052397        1.0765618806
 C         -0.5503432999       -0.5394049102        2.4097519005
 C         -1.4587449601       -1.4109152402        2.9773362801
 C         -2.5208729102       -1.8980980296        2.2352564599
 C         -2.6475505001       -1.5214581691        0.9041819301
 N         -3.7113204902       -1.9954214886        0.1261303599
 S         -4.3784019899       -1.0434275180       -1.0678123998
 O         -5.7299896300       -1.5437459677       -1.2095652000
 O         -3.5744342799       -1.0739006378       -2.2633781798
 C         -4.4134204996        0.6126565917       -0.4008997392
 C         -3.8490936193        1.6463808018       -1.1196523288
 C         -3.8807652790        2.9280196817       -0.5930305184
 C         -4.4723193490        3.1521318314        0.6402367017
 C         -5.0414106993        2.1043765512        1.3478983913
 C         -5.0150681496        0.8220424214        0.8243023308
 H         -5.4559442198       -0.0103207887        1.3479230005
 H         -5.5033944293        2.2829799010        2.3053894613
 H         -4.4905077088        4.1494058612        1.0506425120
 H         -3.4407311988        3.7441552818       -1.1440756181
 H         -3.3934656493        1.4259297121       -2.0719975789
 H         -4.4006983403       -2.5445182786        0.6165183796
 H         -3.2348808804       -2.5765647096        2.6766445097
 H         -1.3468807502       -1.7083129805        4.0090978800
 H          0.2763014301       -0.1546699005        2.9914151407
 C          0.3501045104        0.7932536803        0.5004077910
 H          0.4862212106        1.6193141700        1.2184722213
 C         -0.1078001094        1.4271355409       -0.8044453488
 C          0.8769552208        1.9984363810       -1.7786761786
 C          0.0984461005        0.7689360313       -2.1342587790
 H         -0.6860459394        0.8444118918       -2.8738600590
 H          0.6090340603       -0.1815546988       -2.1497496293
 H          1.9273722908        1.8876192907       -1.5515707586
 H          0.6327238710        2.9259553012       -2.2739750282
 H         -1.0340995192        1.9792470811       -0.6759382886
 O          2.7093120507        2.0335153395        1.4151459415
