  62
        -98.94382637
 C         -1.8494693425        1.1286267124        0.4420526231
 C         -1.9133161448       -0.0457825986       -0.3467418958
 C         -3.2255570348       -0.3451623834       -0.9394218737
 C         -4.2543878316        0.4956641015       -0.7278673229
 C         -5.6520062862        0.2853236386       -1.2325921669
 C         -6.5045247362       -0.4767533865       -0.2084363356
 C         -5.8355666866       -1.7393621521        0.3348900360
 H         -4.9580014847       -1.4537062906        0.9192284836
 H         -6.5409666540       -2.2097866356        1.0233422088
 C         -5.4198069868       -2.7515766801       -0.7417972083
 H         -5.7147647473       -3.7509620256       -0.4148503123
 H         -5.9534560768       -2.5450705052       -1.6702924011
 C         -3.9163648700       -2.7994889204       -1.0208848122
 H         -3.7115302349       -3.6872677347       -1.6251441039
 H         -3.3739304487       -2.9114991998       -0.0789241405
 C         -3.3386512199       -1.5922320596       -1.7704911041
 H         -2.3178331976       -1.8440015090       -2.0730940703
 H         -3.9253200640       -1.4040884379       -2.6720612460
 H         -6.7129331552        0.1892087559        0.6322246640
 H         -7.4548892597       -0.7384873678       -0.6773231078
 H         -6.1035225836        1.2625984623       -1.4123725331
 H         -5.6153453278       -0.2641936922       -2.1713173771
 O         -4.1477033795        1.6257481952        0.0175238810
 C         -2.9506089719        1.9639542647        0.6277580199
 O         -2.9909620500        3.0190466268        1.2936720147
 O         -0.9311174307       -0.8034629511       -0.5491564321
 C         -0.5521811505        1.5166724288        1.1242920490
 C          0.5670577510        1.7115930098        0.1290586680
 C          0.2994223177        2.1844747390       -1.1516390059
 C          1.3149501182        2.3534146263       -2.0745807732
 C          2.6270115942        2.0712616445       -1.7371019220
 C          2.9096199147        1.6252989602       -0.4545886259
 C          1.8869663739        1.4479213195        0.4688244921
 H          2.1267732975        1.0939874499        1.4600298785
 N          4.2516618335        1.3335300561       -0.1149716599
 S          4.8561980324       -0.0946723016       -0.7553588628
 O          6.2181231942       -0.1961618718       -0.2824157419
 O          4.6697939295       -0.0755159525       -2.1826063272
 C          3.8559696234       -1.3616313995        0.0018681436
 C          2.5672191123       -1.5515926310       -0.4549372048
 C          1.7468842936       -2.4515327137        0.2071525751
 C          2.2308448420       -3.1467173311        1.3046727497
 C          3.5317257281       -2.9522532638        1.7458662304
 C          4.3509164260       -2.0429835749        1.0970787565
 H          5.3645965155       -1.8522371485        1.4111905302
 H          3.9042071486       -3.4984837327        2.5977195401
 H          1.5875104368       -3.8428425548        1.8201796399
 H          0.7287062599       -2.5699861049       -0.1278293366
 H          2.2108901998       -0.9992220677       -1.3092132829
 H          4.4175530113        1.3344190585        0.8827214328
 H          3.4290082081        2.1750334920       -2.4492964165
 H          1.0822372982        2.7081369785       -3.0674771831
 H         -0.7228287765        2.4089677053       -1.4242933453
 H         -0.7446888278        2.4844616295        1.6115607233
 C         -0.2068737718        0.4921699194        2.1894277637
 C          0.4296940259        0.9113439739        3.4797923541
 C         -1.0031572532        0.4733333021        3.4581570998
 H         -1.2607949847       -0.4802928959        3.8935167800
 H         -1.7701704412        1.2262763528        3.5710190591
 H          1.1564786924        0.2542136867        3.9338779495
 H          0.6307829695        1.9625086390        3.6240684613
 H          0.0812142949       -0.4628353892        1.7647263134
