  62
        -98.94295179
 C          1.7964665206        0.6768161207        0.6927074691
 C          2.7771791905        1.1656899302       -0.2053597913
 C          4.1554698205        0.7108109003        0.0368624788
 C          4.4122884507       -0.1251642991        1.0579391492
 C          5.7559932007       -0.7170320390        1.3680316193
 C          5.9511955606       -2.0603152394        0.6506918000
 C          5.6094490704       -2.0224729202       -0.8389766499
 H          4.5377559304       -1.8437796102       -0.9542396899
 H          5.8138527103       -3.0160610004       -1.2439570594
 C          6.3882430503       -0.9722381706       -1.6433125106
 H          6.7400007701       -1.4313576811       -2.5696273404
 H          7.2694589604       -0.6560751703       -1.0838780709
 C          5.5699547002        0.2583126692       -2.0381868012
 H          4.6405002402       -0.0587413211       -2.5175807409
 H          6.1432448501        0.8248176088       -2.7768322316
 C          5.2193274404        1.2193227698       -0.8954676816
 H          4.8148236303        2.1319529096       -1.3424220221
 H          6.1237021105        1.4791381701       -0.3419104719
 H          5.3104125907       -2.8045956791        1.1294947505
 H          6.9891674806       -2.3726056593        0.7799459301
 H          6.5335479307       -0.0171903891        1.0679574688
 H          5.8207152409       -0.8780648984        2.4454838594
 O          3.4490483308       -0.5680359187        1.9059495496
 C          2.1298638708       -0.1825490587        1.7448012796
 O          1.3540576909       -0.6592151783        2.5986754199
 H         -1.6786223593       -0.7430687391        0.9898204804
 C         -1.3948495695       -0.6716417497       -0.0497067097
 C         -0.3777219195        0.1886977801       -0.4379864403
 C         -0.0198710197        0.2397900494       -1.7818744704
 C         -0.6551185599       -0.5675146111       -2.7066076398
 C         -1.6685921098       -1.4256101709       -2.3165538992
 C         -2.0386996496       -1.4787466302       -0.9786011791
 N         -3.0637700096       -2.3380008699       -0.5520079485
 S         -4.1843989394       -1.7794035993        0.5526297213
 O         -3.6386950092       -1.8007451286        1.8860997813
 O         -5.3502528195       -2.6095844795        0.3355378320
 C         -4.5365402495       -0.1001806796        0.0599832105
 C         -4.9154439997        0.1378100397       -1.2468856796
 C         -5.1915344297        1.4369551195       -1.6394549603
 C         -5.0942014996        2.4713337000       -0.7213857408
 C         -4.7228272994        2.2158450207        0.5889728492
 C         -4.4355312693        0.9184145609        0.9843962399
 H         -4.1329100192        0.6759846214        1.9910928700
 H         -4.6512732593        3.0210878611        1.3027235288
 H         -5.3105613796        3.4824992398       -1.0276043114
 H         -5.4821192599        1.6386724989       -2.6577680103
 H         -4.9973925998       -0.6876758507       -1.9347272491
 H         -3.5022871897       -2.8719315403       -1.2880422082
 H         -2.1624457899       -2.0580616713       -3.0386239388
 H         -0.3617223800       -0.5256130817       -3.7445495899
 H          0.7725587202        0.9046660492       -2.0882223308
 C          0.3214137006        1.0386927107        0.5962550392
 H         -0.1080805993        0.7849964612        1.5751819094
 C          0.0820692606        2.5137170205        0.3377474584
 C         -1.2412547794        3.1034301107        0.7157371283
 C         -0.0133718692        3.4511300011        1.5018018879
 H          0.4047627407        4.4413154611        1.4007744973
 H          0.0959287609        3.0310669117        2.4916417181
 H         -1.9650120293        2.4447637910        1.1714953787
 H         -1.6723004494        3.8559101104        0.0740483279
 H          0.5650544305        2.8795562000       -0.5578991719
 O          2.5428340904        1.9416026897       -1.1688395017
