  62
        -98.93414341
 C          2.4601532701        0.1596508993       -0.4569804795
 C          3.4356564501       -0.7333468904        0.0526921710
 C          4.6654205001       -0.1082683901        0.5703604506
 C          4.7809897500        1.2309945999        0.5781527399
 C          5.9959056600        1.9869016202        1.0307372995
 C          6.9581005700        2.2437420397       -0.1376426706
 C          7.2647435800        0.9994937293       -0.9712447200
 H          6.3523075100        0.6761625390       -1.4775477598
 H          7.9749456800        1.2947358489       -1.7466960302
 C          7.8421001101       -0.1757191703       -0.1700419894
 H          8.6843489101       -0.5965127505       -0.7234002792
 H          8.2283634901        0.1814760102        0.7852492804
 C          6.8566745802       -1.3192123402        0.0783302612
 H          7.4195609402       -2.1771397100        0.4556956016
 H          6.3982062302       -1.6199219807       -0.8671768886
 C          5.7369324402       -1.0281007497        1.0853283111
 H          5.2364713502       -1.9751489896        1.3079474416
 H          6.1660018302       -0.6406597392        2.0115866209
 H          6.5120925999        2.9941302793       -0.7945213310
 H          7.8870356000        2.6527343100        0.2638887091
 H          5.6715571500        2.9449666004        1.4403949390
 H          6.4994621901        1.4208628607        1.8120145598
 O          3.8052553200        2.0577143797        0.1217734095
 C          2.6373027400        1.5454275793       -0.4145133602
 O          1.8390518699        2.4134135991       -0.8231162906
 H         -1.3715243400        0.6504676087       -1.1307194297
 C         -1.1801173999        0.0868360392       -0.2273676594
 C          0.0772647201       -0.4623011506       -0.0223389091
 C          0.3128079402       -1.1707988100        1.1511966213
 C         -0.6886389998       -1.3171449996        2.0940956514
 C         -1.9399456998       -0.7638329697        1.8886635211
 C         -2.1873288299       -0.0574395404        0.7192818307
 N         -3.4537451099        0.5158197995        0.5104135905
 S         -4.7973465499       -0.4324585704        0.9048279110
 O         -5.0597931798       -0.2866529197        2.3145338509
 O         -4.5977283398       -1.7849482006        0.4356370417
 C         -6.0775527599        0.3715141390       -0.0377472994
 C         -6.3899721699       -0.1107148016       -1.2948017092
 C         -7.3711521300        0.5311394079       -2.0338265995
 C         -8.0170291400        1.6397188982       -1.5072242900
 C         -7.6920634600        2.1118932288       -0.2441435903
 C         -6.7127579800        1.4743270193        0.5008023700
 H         -6.4337450000        1.7996790298        1.4893679099
 H         -8.1986723301        2.9724025090        0.1621476193
 H         -8.7810037601        2.1367828578       -2.0839243003
 H         -7.6282297600        0.1645353274       -3.0146178593
 H         -5.8694367199       -0.9817181318       -1.6598477687
 H         -3.5454780800        0.9221686390       -0.4105725797
 H         -2.7295946898       -0.8762501794        2.6142551012
 H         -0.4937553897       -1.8711101291        3.0004323416
 H          1.2834474802       -1.6145546099        1.3119431615
 C          1.1486900101       -0.3016058411       -1.0710726692
 H          0.8380973300        0.5235243985       -1.7318755596
 C          1.3052533901       -1.5394254615       -1.9450128986
 C          0.7923759002       -2.8934994814       -1.5699553179
 C          0.1147640502       -2.1144339220       -2.6542790382
 H          0.2281675602       -2.4388173825       -3.6775763181
 H         -0.8524691799       -1.6908415419       -2.4278778384
 H          1.3959675003       -3.7473866015       -1.8366856474
 H          0.2810140402       -3.0035343709       -0.6265612078
 H          2.2365409301       -1.5200252718       -2.5021946186
 O          3.3099195202       -1.9836980604        0.0847548916
