  62
        -98.93970183
 C          2.1384864509        0.3430865035        0.3387423795
 C          3.1896841307        0.6390557968       -0.5639859536
 C          4.1493662104       -0.4473300025       -0.8059680875
 C          3.9759333448       -1.6453206953       -0.2213636796
 C          4.8582112333       -2.8524567250       -0.3899372953
 C          6.0905637058       -2.8558660349        0.5254799022
 C          7.1873040966       -1.8598926311        0.1459344733
 H          8.0717181324       -2.1203601017        0.7307739783
 H          7.4434539829       -1.9873551945       -0.9062312927
 C          6.8315652960       -0.3914472824        0.4172230727
 H          7.6724995285        0.1020079842        0.9097099200
 H          5.9847778099       -0.3429559082        1.1058319718
 C          6.4983816751        0.4212192284       -0.8338808437
 H          7.3824599737        0.4917085862       -1.4713063369
 H          6.2250427630        1.4324409466       -0.5225618784
 C          5.3409754057       -0.1471928583       -1.6651377846
 H          5.0412817923        0.6065602115       -2.3970132449
 H          5.6623905698       -1.0428655133       -2.1957672621
 H          6.5159877329       -3.8616199359        0.4941831413
 H          5.7636263830       -2.6654857203        1.5504316298
 H          5.1752249650       -2.9330789634       -1.4300646175
 H          4.2442185363       -3.7217836219       -0.1447279565
 O          2.9298992682       -1.9054298791        0.6087783464
 C          2.0119859843       -0.9195301701        0.9267067764
 O          1.1389017170       -1.2847072148        1.7418466095
 O          3.3454175814        1.7429404297       -1.1484345814
 C          1.0797766819        1.3573264539        0.7437889571
 C          0.0055888533        1.4811563024       -0.3109013416
 C          0.2695188018        2.0302790503       -1.5614952148
 C         -0.7362934266        2.1327826931       -2.5045534828
 C         -2.0176458266        1.6947154431       -2.2217863341
 C         -2.2934357281        1.1489482474       -0.9731526487
 C         -1.2817085906        1.0455472767       -0.0287701553
 H         -1.5012390175        0.6007440379        0.9306539357
 N         -3.6013448401        0.7450977900       -0.6517033295
 S         -3.8456307428       -0.5785557385        0.3655157417
 O         -3.5931439575       -0.1738507774        1.7253999998
 O         -3.1105989500       -1.7256874806       -0.1200887873
 C         -5.5977778111       -0.8159767577        0.1319405038
 C         -6.0516233889       -1.8438549280       -0.6721113688
 C         -7.4166677357       -1.9923714394       -0.8637337065
 C         -8.2990822965       -1.1133184526       -0.2543977304
 C         -7.8284403920       -0.0863260805        0.5506752727
 C         -6.4655153231        0.0664580550        0.7479635852
 H         -6.0537965688        0.8428324523        1.3713025419
 H         -8.5175613108        0.5938641835        1.0246387699
 H         -9.3604661013       -1.2307986730       -0.4057700200
 H         -7.7852863777       -2.7915656030       -1.4863590806
 H         -5.3281618700       -2.5060612617       -1.1201516071
 H         -4.1968135761        0.6845356283       -1.4670806352
 H         -2.8010232351        1.7757565837       -2.9601750818
 H         -0.5187848648        2.5552337193       -3.4739763703
 H          1.2722822162        2.3546953016       -1.7915548617
 H          0.6067030842        0.9432376863        1.6453294252
 C          1.6608921711        2.7149464769        1.0906750680
 C          0.8587515025        3.6447668826        1.9479899022
 C          2.0885353587        2.9888081948        2.4993418342
 H          2.9686111701        3.5925660429        2.6624467945
 H          1.9628553970        2.1955452324        3.2226759089
 H          0.8922411531        4.7017106224        1.7332914365
 H         -0.1015529798        3.2955942230        2.2980222963
 H          2.2573927512        3.1449035749        0.2974926571
