  62
        -98.94008184
 C          2.6351008427        1.1431027576        0.2683404876
 C          2.5645057780        0.3029537676       -0.8707886842
 C          3.4153292517       -0.8977822036       -0.8342983544
 C          4.1879673921       -1.1329403905        0.2407059138
 C          5.0529146495       -2.3447652907        0.4292415460
 C          4.2897404660       -3.4619905981        1.1548623055
 C          2.9097751505       -3.7527556209        0.5641867780
 H          2.4776655304       -4.5753580946        1.1384211346
 H          2.2656772350       -2.8831278443        0.7163356546
 C          2.9207769981       -4.1192916287       -0.9265672888
 H          3.9257900233       -4.4187653605       -1.2259669841
 H          2.2668367431       -4.9803810402       -1.0792960282
 C          2.4238456056       -3.0112948482       -1.8572641349
 H          1.4568321800       -2.6417052917       -1.5060125154
 H          2.2674749104       -3.4453373704       -2.8482310323
 C          3.3640297739       -1.8111584609       -2.0265883041
 H          4.3644667213       -2.1602471133       -2.2896452784
 H          2.9812818580       -1.2048309921       -2.8526438853
 H          4.8968101133       -4.3686582970        1.1285931078
 H          4.1600990875       -3.1704598319        2.1999333136
 H          5.3951130892       -2.6954110974       -0.5423787081
 H          5.9191325152       -2.0601938709        1.0289483820
 O          4.2234415220       -0.3080865459        1.3193288951
 C          3.4321525062        0.8283320566        1.3711456665
 O          3.5200877897        1.4634822767        2.4418215165
 H          0.2303907061        0.4866618919        1.3758735711
 C         -0.2942056777        1.0382862925        0.6034623422
 C          0.3620271231        2.0800866344       -0.0421169680
 C         -0.3227414761        2.7839430391       -1.0228626700
 C         -1.6213669365        2.4377105667       -1.3544847797
 C         -2.2623424171        1.3882870014       -0.7233504236
 C         -1.5894730982        0.6807984307        0.2646136391
 N         -2.2240228556       -0.4016369157        0.8995380155
 S         -3.7680011205       -0.1714492349        1.5164947496
 O         -3.9801667586        1.2016022768        1.9128415311
 O         -3.9106106917       -1.1684583323        2.5554179034
 C         -4.8412988942       -0.5909492835        0.1597090502
 C         -5.8073062836        0.3036923074       -0.2571942779
 C         -6.6386837490       -0.0502394338       -1.3085886555
 C         -6.4906831453       -1.2858652053       -1.9197305853
 C         -5.5170359484       -2.1739730669       -1.4870998130
 C         -4.6835187731       -1.8269160461       -0.4360122704
 H         -3.9165013466       -2.4883182767       -0.0687659110
 H         -5.4041096923       -3.1336144645       -1.9653463712
 H         -7.1378618605       -1.5588511749       -2.7382146438
 H         -7.3963989070        0.6383513984       -1.6463459873
 H         -5.8812658472        1.2555280653        0.2442197353
 H         -1.6404323325       -0.8785941172        1.5712395212
 H         -3.2696069007        1.1104458705       -0.9873905321
 H         -2.1390487742        2.9888888138       -2.1246921583
 H          0.1664402640        3.5893241609       -1.5450960907
 C          1.7760199506        2.3904982224        0.3877358009
 H          1.7512491472        2.6144690325        1.4679172652
 C          2.3593759600        3.6206083759       -0.2916183136
 C          3.8370451553        3.7609580298       -0.5007747049
 C          2.9281453046        3.5771431536       -1.6768394581
 H          2.7574387451        4.4230037632       -2.3267230349
 H          2.9268328677        2.6266673723       -2.1856722742
 H          4.4663247826        2.9345185684       -0.2030949201
 H          4.2863807750        4.7295650215       -0.3401891829
 H          1.8299766072        4.5255821101       -0.0091563296
 O          1.8337648987        0.5279738914       -1.8683417492
