  62
        -98.93628337
 C         -2.0832309093       -1.4297789805        0.1775283794
 C         -1.7678503194       -0.2810486305       -0.5845213706
 C         -2.8799828695        0.6490814393       -0.8466082708
 C         -4.1085241996        0.3579946791       -0.3855036310
 C         -5.3875836797        1.1350439189       -0.5725344912
 C         -5.3205893000        2.6601029889       -0.4086500713
 C         -4.2956621802        3.1593950491        0.6202077288
 H         -3.9280755902        2.3237121092        1.2180320289
 H         -4.7887369005        3.8553782691        1.3013575387
 C         -3.1123418503        3.8893878793       -0.0198735610
 H         -2.6372684005        4.5172945894        0.7375599090
 H         -3.4912482602        4.5508956392       -0.8019238811
 C         -2.0264362000        2.9898186895       -0.6093689608
 H         -1.4862279200        2.4840145096        0.1959397393
 H         -1.3098064300        3.6271872896       -1.1334526907
 C         -2.5202487896        1.9072359093       -1.5829821308
 H         -1.6894324095        1.6437474595       -2.2436349107
 H         -3.3450328896        2.2690306192       -2.1921110310
 H         -6.3193901801        2.9889024587       -0.1166110615
 H         -5.1091918499        3.1212707589       -1.3724261813
 H         -5.7864141295        0.8989695988       -1.5634218013
 H         -6.0822626397        0.7182391888        0.1606029387
 O         -4.3688858595       -0.7725349809        0.3315320290
 C         -3.3738373594       -1.6833437207        0.6385440992
 O         -3.7539024493       -2.6561608907        1.3205347092
 H          1.6544877409       -2.6377580298       -0.2626717199
 C          1.4884787007       -1.9439558698        0.5470930501
 C          0.2122625206       -1.7429369300        1.0503208398
 C          0.0487562602       -0.8366704100        2.0954709398
 C          1.1215805300       -0.1264994198        2.5979658999
 C          2.3863526201       -0.3005626596        2.0623325801
 C          2.5633389205       -1.2164834896        1.0364358002
 N          3.8617173406       -1.3440392094        0.4635556204
 S          4.0390356506       -0.3560379195       -0.8995575896
 O          3.1440831909       -0.7743302597       -1.9575269697
 O          5.4458086507       -0.4084769692       -1.2383398294
 C          3.6106084403        1.2566230705       -0.2913465098
 C          4.6128368400        2.0327601107        0.2578699104
 C          4.2899741597        3.2770962607        0.7737016603
 C          2.9752773496        3.7170101504        0.7355652200
 C          1.9827271499        2.9235809502        0.1812358399
 C          2.2958058602        1.6771953803       -0.3394440600
 H          1.5392965804        1.0363593001       -0.7672727301
 H          0.9590785498        3.2616061301        0.1546944397
 H          2.7205723894        4.6840773804        1.1399995899
 H          5.0597045695        3.8965824708        1.2050568603
 H          5.6187532601        1.6459802009        0.2621603206
 H          4.0585643508       -2.2925998394        0.1686540205
 H          3.2311023300        0.2605208906        2.4272272902
 H          0.9716220398        0.5771465902        3.4023736198
 H         -0.9445508699       -0.6838965602        2.4964522396
 C         -1.0012886492       -2.4461737903        0.4962919097
 H         -1.4148820992       -3.1035412703        1.2750510397
 C         -0.7075617289       -3.2793799803       -0.7348985402
 C         -0.2252522386       -4.6915922402       -0.5956970301
 C         -1.6198440086       -4.4186208405       -1.0715443503
 H         -1.8570359784       -4.5999163306       -2.1092174903
 H         -2.4410850387       -4.6085889406       -0.3959583704
 H         -0.0985306687       -5.0813376001        0.4031285300
 H          0.4948043415       -5.0636158401       -1.3096045799
 H         -0.3240392888       -2.6866440303       -1.5593355002
 O         -0.6156592794       -0.0389771303       -1.0292966504
