  62
        -98.93790397
 C         -1.3745081624       -1.1779598849        0.9382701317
 C         -2.1153629943       -0.5845604466       -0.1147912274
 C         -2.5250434892        0.8129849892        0.0907509548
 C         -2.1101519613        1.4776891261        1.1817213717
 C         -2.3819476528        2.9206344144        1.5101686003
 C         -1.7483184213        3.9314901828        0.5333996268
 C         -2.7058625423        4.4313614004       -0.5557166371
 H         -3.7324301964        4.3009857994       -0.2101677696
 H         -2.5544417133        5.5041266480       -0.6926712661
 C         -2.5454774032        3.7781338569       -1.9321097651
 H         -1.6818467016        4.2181385680       -2.4366696308
 H         -3.4323094130        4.0224235409       -2.5221209462
 C         -2.3457596121        2.2611526610       -1.9408466566
 H         -1.3170647760        2.0212691943       -1.6614039463
 H         -2.4700643168        1.9094655689       -2.9677954833
 C         -3.2946247392        1.4754916283       -1.0146732284
 H         -4.0657755569        2.1285859291       -0.6077349385
 H         -3.7790770074        0.6772654429       -1.5812879028
 H         -0.8605762834        3.4870839334        0.0801743441
 H         -1.4184397541        4.7890168580        1.1223882778
 H         -1.9757192277        3.0803958757        2.5110528731
 H         -3.4612097328        3.0809239409        1.5573641281
 O         -1.3637911794        0.8872247104        2.1541591221
 C         -0.9670525104       -0.4364737874        2.0489972187
 O         -0.2547721946       -0.8285439663        2.9957210601
 O         -2.4294573029       -1.1769886996       -1.1789058148
 C         -0.7693664909       -2.5691934339        0.8079110718
 C         -0.0055404576       -2.5972747273       -0.4936099660
 C         -0.2162661970       -3.5039825253       -1.5214843723
 C          0.4883414674       -3.3813755233       -2.7079464027
 C          1.3895950948       -2.3504568977       -2.9003159366
 C          1.6127364137       -1.4418877545       -1.8704650504
 C          0.9432312502       -1.5969557729       -0.6707482367
 H          1.1164089481       -0.8934528288        0.1307986125
 N          2.5166829273       -0.3791066408       -2.0125114686
 S          2.2638393631        1.0614195064       -1.1999936992
 O          0.8642356037        1.3951839351       -1.0798924042
 O          3.0781464408        2.0180926578       -1.9219435977
 C          2.9859898662        0.7914414475        0.4032546563
 C          2.2868348967        1.1516093372        1.5372991281
 C          2.8666958603        0.9455078934        2.7787578091
 C          4.1342645237        0.3910124841        2.8620640120
 C          4.8287518187        0.0428608165        1.7128815524
 C          4.2520436978        0.2437063325        0.4695354479
 H          4.7574081305       -0.0156253947       -0.4457300829
 H          5.8144425850       -0.3880171884        1.7839708063
 H          4.5804069459        0.2282242258        3.8304309919
 H          2.3161421807        1.2049265789        3.6687513205
 H          1.2952519143        1.5660804506        1.4351235471
 H          2.8776279008       -0.2377766266       -2.9442825470
 H          1.9088030771       -2.2393305086       -3.8400782222
 H          0.3128393372       -4.0863213876       -3.5065586460
 H         -0.9520934909       -4.2831831297       -1.4084957821
 H         -0.0335120417       -2.6269045386        1.6273983708
 C         -1.7200627951       -3.7369496276        1.0063797868
 C         -2.9515402548       -3.5873367520        1.8483423159
 C         -3.0751450344       -3.8114801985        0.3726131408
 H         -3.4234536098       -4.7759343323        0.0318195111
 H         -3.3802868217       -2.9886228345       -0.2527575479
 H         -3.2184531129       -4.3901117988        2.5192862223
 H         -3.1716815118       -2.6018621301        2.2335176618
 H         -1.1826638381       -4.6752399923        1.1079975577
