  62
        -98.93438879
 C         -2.5809515931       -1.3444202350       -0.2039430325
 C         -2.3735079116       -0.0790577748       -0.7971216982
 C         -3.5366435909        0.8312222822       -0.8452048587
 C         -4.7109637822        0.4119013898       -0.3382187856
 C         -6.0102351532        1.1669369621       -0.2439408739
 C         -6.0081014452        2.2093479760        0.8857186598
 C         -4.7360541116        3.0474428618        0.9840391559
 H         -4.8145022668        3.6663858303        1.8818694883
 H         -3.8785751373        2.3859150896        1.1233108821
 C         -4.4744364288        3.9749490802       -0.2002951821
 H         -3.5907328675        4.5701136454        0.0443785100
 H         -5.3169982550        4.6613795638       -0.3102976540
 C         -4.2265946762        3.2899052232       -1.5458868011
 H         -3.8182934109        4.0451120658       -2.2238958990
 H         -5.1577028224        2.9481196215       -1.9897352418
 C         -3.2130280609        2.1503974137       -1.5044822521
 H         -2.9261703527        1.9022937537       -2.5336357330
 H         -2.2916736070        2.5059909639       -1.0281088464
 H         -6.1308573947        1.6800493925        1.8338177635
 H         -6.8696141410        2.8655836495        0.7516875843
 H         -6.7866391657        0.4282661590       -0.0329572322
 H         -6.2437965503        1.6295285967       -1.1981043267
 O         -4.8618050456       -0.8206492975        0.2268293599
 C         -3.8180643777       -1.7181303021        0.3195183242
 O         -4.1079230590       -2.7964122107        0.8767931918
 O         -1.2665301074        0.2892530808       -1.2731531133
 C         -1.4373002731       -2.3378328956       -0.0921494709
 C         -0.3422300678       -1.7290855855        0.7499604238
 C         -0.6389115740       -1.3752861268        2.0642015692
 C          0.3148313365       -0.7835929838        2.8689298531
 C          1.5866759304       -0.5318512416        2.3830040421
 C          1.8917845615       -0.8776598146        1.0746058618
 C          0.9309191826       -1.4780952644        0.2679043508
 H          1.1804382330       -1.7331902799       -0.7498704007
 N          3.1865990454       -0.6493929466        0.5721845471
 S          3.9474259890        0.8049572148        0.9720084755
 O          4.4763740801        0.6899963286        2.3085950410
 O          3.0599477656        1.9224889223        0.7395819765
 C          5.2846791400        0.8104262427       -0.2058879778
 C          6.4707300776        0.1828483341        0.1241279373
 C          7.4985245682        0.1625832630       -0.8052803640
 C          7.3236778229        0.7653403475       -2.0420690073
 C          6.1277553236        1.3924767378       -2.3584829195
 C          5.0953571127        1.4156100388       -1.4340140870
 H          4.1522664593        1.8994116611       -1.6343203100
 H          5.9953405861        1.8626142937       -3.3197034044
 H          8.1249907193        0.7493305016       -2.7638361994
 H          8.4306782505       -0.3215787448       -0.5626576121
 H          6.5629404194       -0.2641612560        1.1000629745
 H          3.2338554573       -0.8092873438       -0.4253206376
 H          2.3369600366       -0.0599556954        2.9965164080
 H          0.0684926636       -0.5111070145        3.8845912780
 H         -1.6354026697       -1.5640519491        2.4415157177
 H         -1.8417458469       -3.2029270597        0.4521407970
 C         -0.9876083514       -2.7917674219       -1.4643383637
 C         -0.2548601821       -4.0897352024       -1.6184717006
 C         -1.6687722244       -3.9652764355       -2.0990367894
 H         -1.8531017369       -3.9401662439       -3.1625861979
 H         -2.4495248117       -4.4521414293       -1.5329437406
 H          0.5315029398       -4.1556664426       -2.3550768353
 H         -0.0720738873       -4.6671374894       -0.7249577599
 H         -0.7139278557       -1.9662310236       -2.1109183322
