  62
        -98.94393111
 C          1.7860381050        0.6486439043        0.5565570348
 C          3.0634171748        0.6313899572        1.1656758964
 C          4.2075123647        0.5423276784        0.2516720342
 C          3.9987195548        0.5069787306       -1.0772199014
 C          5.0633542735        0.4407141576       -2.1384774531
 C          5.5679835909       -0.9793232357       -2.4293078752
 C          6.4548904815       -1.5898936475       -1.3433861174
 H          6.9108116319       -2.4862714438       -1.7686101469
 H          7.2622335096       -0.8974180198       -1.1029180212
 C          5.7078241462       -1.9784375295       -0.0598361654
 H          4.6355452485       -2.0272534896       -0.2639452073
 H          6.0182837269       -2.9776106738        0.2542902806
 C          5.9453292385       -1.0378890462        1.1218119165
 H          5.3409795477       -1.3857975041        1.9636765514
 H          6.9949643300       -1.0832619748        1.4205373680
 C          5.5778742041        0.4263715772        0.8475978938
 H          6.3190671954        0.8837644068        0.1925451271
 H          5.5731381438        0.9624337876        1.7999141759
 H          4.7062471405       -1.6280470172       -2.6034443230
 H          6.1438640033       -0.9370197670       -3.3567132274
 H          5.9035678869        1.0755271403       -1.8557314065
 H          4.6170783235        0.8403387613       -3.0516602237
 O          2.7555459960        0.5487430430       -1.6247351460
 C          1.6195473224        0.6001171999       -0.8278867598
 O          0.5498261807        0.6025054300       -1.4628888081
 O          3.2374326811        0.6871433815        2.4131422778
 C          0.5578721837        0.7287074747        1.4414069765
 C         -0.3577799829       -0.4537806824        1.2370875082
 C          0.1666415088       -1.7035996838        0.9217272231
 C         -0.6604727738       -2.7906768433        0.7097439688
 C         -2.0336799262       -2.6623749656        0.8242588966
 C         -2.5665080157       -1.4293096535        1.1684338508
 C         -1.7340794383       -0.3359969839        1.3734052616
 H         -2.1693805024        0.6168905803        1.6335220490
 N         -3.9712636831       -1.3030976792        1.2828003340
 S         -4.8027468224       -1.2421516391       -0.1729350352
 O         -6.2022544749       -1.1401396743        0.1728382714
 O         -4.4170384536       -2.3758474379       -0.9715605413
 C         -4.2520286169        0.2817152348       -0.9173546578
 C         -2.9986216349        0.3239424980       -1.4939596482
 C         -2.5189084766        1.5348156246       -1.9685068729
 C         -3.3008395050        2.6747899532       -1.8633309342
 C         -4.5625774807        2.6146305985       -1.2893109434
 C         -5.0410438888        1.4099701165       -0.8009505312
 H         -6.0109939400        1.3182952640       -0.3390596660
 H         -5.1678171319        3.5038118259       -1.2133580487
 H         -2.9214091306        3.6161143123       -2.2295684692
 H         -1.5251045524        1.5700691320       -2.3863433237
 H         -2.4049652645       -0.5730831139       -1.5645528820
 H         -4.2538949236       -0.5131703403        1.8476685098
 H         -2.6963900557       -3.4916817454        0.6394297925
 H         -0.2321572862       -3.7476629188        0.4516752694
 H          1.2387292064       -1.8135178168        0.8308046821
 H          0.9414132491        0.6898091243        2.4727686657
 C         -0.1478710188        2.0551893090        1.2336499058
 C         -0.8118614278        2.7583644482        2.3790646917
 C          0.4641054485        3.2967093605        1.8070827116
 H          0.4296988010        4.2056720024        1.2259091455
 H          1.3717341452        3.1801851082        2.3814098220
 H         -1.7250377370        3.3028807082        2.1899496202
 H         -0.7682944019        2.2894014029        3.3507659760
 H         -0.6063895358        2.1294772574        0.2537494459
