  62
        -98.93578809
 C         -1.9201649579       -1.2436910144        0.0240109989
 C         -2.3771745045       -0.0704610849       -0.6180659921
 C         -3.7602905134        0.3525736516       -0.3162829278
 C         -4.5058063541       -0.3871274974        0.5234198353
 C         -5.9242278848       -0.1610501438        0.9824447294
 C         -6.9401242724        0.2579210318       -0.0912627001
 C         -7.3999977950        1.7109133618        0.0401772254
 H         -8.3795244029        1.8118701365       -0.4325394478
 H         -7.5250518826        1.9413876286        1.1002431685
 C         -6.4723714302        2.7453962839       -0.5947685284
 H         -6.5422908470        2.6742835748       -1.6824448260
 H         -6.8369963984        3.7353501735       -0.3104544898
 C         -4.9989802323        2.6331144737       -0.1978074940
 H         -4.9051195134        2.4105596460        0.8645608475
 H         -4.5342026645        3.6081704188       -0.3597987370
 C         -4.2166067079        1.6001869576       -1.0225798444
 H         -4.7941401093        1.3142979724       -1.9065667895
 H         -3.2956703959        2.0554039365       -1.4002887278
 H         -6.5271546926        0.0792181308       -1.0827884235
 H         -7.8173301899       -0.3826652720        0.0132847827
 H         -6.2295350466       -1.1089961010        1.4313733854
 H         -5.9134323600        0.5753420042        1.7899825101
 O         -4.0182759799       -1.5080384778        1.1286648783
 C         -2.7306767918       -1.9551568823        0.9111945218
 O         -2.4288727400       -2.9840380570        1.5476709986
 H          0.8737112122        0.3323547029       -1.2557786796
 C          1.0902139635        0.1847260868       -0.2098788703
 C          0.4660196668       -0.8405258197        0.4837390557
 C          0.7398600687       -0.9919282921        1.8397982607
 C          1.6144645233       -0.1365620684        2.4844402189
 C          2.2329906596        0.8885362412        1.7902270906
 C          1.9594829989        1.0511599372        0.4389065032
 N          2.6001807683        2.0826768442       -0.2734902024
 S          4.2713556155        2.1183388260       -0.1678722370
 O          4.6644097133        2.7830556097        1.0496146572
 O          4.7261357900        2.7314102838       -1.3960325140
 C          4.7469158269        0.3994628914       -0.1002148135
 C          5.3123665289       -0.1151070121        1.0482199943
 C          5.6098635539       -1.4675515250        1.1004306330
 C          5.3317738459       -2.2783509337        0.0113028695
 C          4.7661189012       -1.7455495829       -1.1370761451
 C          4.4682118356       -0.3942939671       -1.1953730774
 H          4.0320029215        0.0522965987       -2.0743916234
 H          4.5508630335       -2.3787079564       -1.9828260560
 H          5.5567623662       -3.3322973589        0.0559766039
 H          6.0513014939       -1.8846249084        1.9911465384
 H          5.5076445945        0.5498409041        1.8734941149
 H          2.2939750967        2.1568190553       -1.2327684757
 H          2.9176410369        1.5672880307        2.2728812683
 H          1.8181082917       -0.2684634347        3.5361428460
 H          0.2488442293       -1.7866370026        2.3840550365
 C         -0.5109920486       -1.7761496548       -0.1851968222
 H         -0.4756380472       -2.7350148917        0.3483576905
 C         -0.1997559829       -2.0210244993       -1.6478997480
 C          1.0382957905       -2.7842807426       -2.0093271463
 C         -0.3106335141       -3.4086384510       -2.2001375727
 H         -0.6850764492       -3.5335735120       -3.2052475471
 H         -0.6120837850       -4.1942432932       -1.5227647873
 H          1.5914598763       -2.4825900441       -2.8855530123
 H          1.6545625938       -3.1420448742       -1.1984794505
 H         -0.5008111061       -1.2073082917       -2.2952157685
 O         -1.6772218479        0.6068294127       -1.4170874197
