  62
        -98.93926553
 C         -2.5450258770       -0.1715996072        0.0349449226
 C         -2.2543813646       -1.1750568514       -0.9150124519
 C         -1.6354527151       -2.4130368761       -0.4098855989
 C         -1.3879333618       -2.5319743896        0.9081844472
 C         -0.7847716296       -3.6601526731        1.7199226001
 C         -0.2065688386       -4.8902158102        1.0278394032
 C          1.1200949997       -4.6434955577        0.3058243246
 H          1.9056910467       -4.5465042548        1.0591766973
 H          1.3502743542       -5.5178753808       -0.3066939572
 C          1.1805180683       -3.3933127294       -0.5691292702
 H          0.9817487744       -2.5027382972        0.0313471499
 H          2.2036530038       -3.2916600800       -0.9440162313
 C          0.2509193515       -3.3917114446       -1.7800799748
 H          0.4813653442       -4.2435096135       -2.4246125039
 H          0.4558065825       -2.4757345435       -2.3435965228
 C         -1.2500458539       -3.4184989478       -1.4576110116
 H         -1.7937048293       -3.1353520044       -2.3644637227
 H         -1.5726355949       -4.4191774335       -1.1811232303
 H         -0.0220321656       -5.6329339138        1.8086191651
 H         -0.9442153042       -5.3185442230        0.3553478626
 H         -0.0101146132       -3.1980309084        2.3406316521
 H         -1.5771893035       -3.9827726442        2.4041960624
 O         -1.7257013332       -1.5496759982        1.7946946838
 C         -2.2482567196       -0.3365509712        1.3863190502
 O         -2.4198083820        0.4862004720        2.3068850271
 H         -0.4097543594        0.8527236574       -0.6398753985
 C         -0.6524243288        1.8573657461       -0.3259352521
 C         -1.9844056373        2.2239415591       -0.1778776843
 C         -2.2697178147        3.5326203246        0.1873096517
 C         -1.2424065928        4.4348495735        0.4128774028
 C          0.0812767036        4.0521618815        0.3041085718
 C          0.3769452205        2.7407373056       -0.0569678189
 N          1.7092533259        2.2919402117       -0.1031387268
 S          2.0744646254        0.6761011112       -0.3583450898
 O          1.8145435880        0.2862579579       -1.7286856488
 O          1.4417563004       -0.1042274794        0.6743859039
 C          3.8349521608        0.7302136974       -0.0823543822
 C          4.6981291011        0.7508093743       -1.1610470836
 C          6.0629054732        0.8200455946       -0.9277311552
 C          6.5387351023        0.8691933332        0.3736895091
 C          5.6603643660        0.8458375654        1.4471168893
 C          4.2952009060        0.7762153102        1.2199011661
 H          3.5740054045        0.7465905760        2.0204278722
 H          6.0334117818        0.8811569915        2.4579931279
 H          7.6008276616        0.9230842254        0.5533148984
 H          6.7478737765        0.8348942653       -1.7601020661
 H          4.2819163119        0.7011745778       -2.1543914331
 H          2.3696474998        2.9344044496       -0.5134290157
 H          0.8790901938        4.7501015773        0.5028349823
 H         -1.4790131089        5.4506584490        0.6911341510
 H         -3.2951606315        3.8459682302        0.2979443629
 C         -3.0422851851        1.1785238113       -0.4460065386
 H         -3.1534812174        1.0780384155       -1.5371469847
 C         -4.3898215358        1.5198362322        0.1536123291
 C         -5.3781553623        2.3397055121       -0.6195572637
 C         -5.6173350185        0.8750124866       -0.4149234274
 H         -6.3982731439        0.5661253019        0.2633137526
 H         -5.4811819021        0.2104500374       -1.2558425823
 H         -6.0008254530        3.0381893516       -0.0812037684
 H         -5.0909699831        2.6704720262       -1.6063484245
 H         -4.3431501725        1.6477049185        1.2290303431
 O         -2.4998253196       -1.0412627022       -2.1470404593
