  62
        -98.94589147
 C          1.5803832389        1.4752880720       -0.2074636996
 C          1.5342068197        0.0889298420       -0.4922002097
 C          2.8372568901       -0.5674531873       -0.6740345494
 C          3.9632156597        0.1620564933       -0.5733816092
 C          5.3541943600       -0.3916749259       -0.6798956989
 C          5.8939977300       -0.8038916757        0.6968712712
 C          4.9292872903       -1.6735574063        1.5032521509
 H          5.4275513802       -1.9263514761        2.4417832110
 H          4.0455484399       -1.0839242068        1.7577586508
 C          4.4902866612       -2.9619802765        0.7934760907
 H          5.1796918414       -3.1889508261       -0.0205902691
 H          4.5458156815       -3.7889084065        1.5046210707
 C          3.0590899512       -2.9325813273        0.2534599204
 H          2.3753953709       -2.6124331377        1.0436335603
 H          2.7828032019       -3.9521111574       -0.0275049297
 C          2.8273527410       -2.0401962673       -0.9721534495
 H          3.5563402513       -2.2825308968       -1.7480290994
 H          1.8256861612       -2.2562629378       -1.3547540598
 H          6.8352935303       -1.3376339052        0.5532072813
 H          6.1018930894        0.1012765344        1.2723610013
 H          5.3482082706       -1.2486092859       -1.3506171390
 H          6.0019119697        0.3808913345       -1.0977047387
 O          3.9645994989        1.4945454433       -0.3086620991
 C          2.7775187185        2.1819177326       -0.1091181893
 O          2.9196144578        3.3949761327        0.1482164708
 H         -2.3528460411        1.3798752598       -0.0829147604
 C         -1.8579867512        1.1675372800        0.8488980597
 C         -0.5431132114        1.5503062207        1.0563350500
 C          0.0416699385        1.2851149909        2.2927072901
 C         -0.6664175814        0.6362292105        3.2847904699
 C         -1.9697349011        0.2258272298        3.0624522096
 C         -2.5656550810        0.4960926095        1.8372519395
 N         -3.8878498707        0.1074909888        1.5859469992
 S         -4.3797625502       -0.3238455114        0.0503686991
 O         -4.5636628306        0.8543696786       -0.7605944009
 O         -5.5716415098       -1.1156400221        0.2761358488
 C         -3.1020248894       -1.3584121606       -0.6397426307
 C         -2.5861948694       -1.0616363602       -1.8833312706
 C         -1.6271686388       -1.8978479597       -2.4292295504
 C         -1.2000086783       -3.0093870095       -1.7226502804
 C         -1.7251715184       -3.2929672999       -0.4724310606
 C         -2.6879067190       -2.4630908504        0.0759989593
 H         -3.1189122091       -2.6633100307        1.0438054092
 H         -1.3820231380       -4.1544573697        0.0780751495
 H         -0.4476565079       -3.6558115590       -2.1473365803
 H         -1.2082188887       -1.6730142994       -3.3974841203
 H         -2.9404897797       -0.1813460004       -2.3968993006
 H         -4.3111214305       -0.4698851915        2.2967860491
 H         -2.5210975710       -0.2941085706        3.8309082995
 H         -0.1981696814        0.4369957607        4.2371271300
 H          1.0658764483        1.5913122215        2.4603811503
 C          0.2813449884        2.2344392012       -0.0058767998
 H          0.5586887778        3.2346852814        0.3574109403
 C         -0.4419008214        2.3768486309       -1.3287403299
 C         -1.3913707320        3.5141997404       -1.5514795900
 C         -0.0669910418        3.4940956912       -2.2530058598
 H         -0.0470759115        3.3012721413       -3.3151481398
 H          0.7006719077        4.1772393216       -1.9191881896
 H         -1.5261501125        4.2172614603       -0.7432309600
 H         -2.2876125517        3.3342304399       -2.1265958302
 H         -0.6806709708        1.4178808108       -1.7754519300
 O          0.4654900801       -0.5651848186       -0.5878978599
