  62
        -98.93511625
 C          2.2139552778        1.2224005753        0.5374143013
 C          2.1640986137        0.2295411118       -0.4693665276
 C          3.0012160178       -0.9730070766       -0.2621286670
 C          3.7209322065       -1.0815935860        0.8692080601
 C          4.6697900930       -2.1781319269        1.2746706916
 C          6.0121106441       -2.1076752706        0.5288480394
 C          5.9020196500       -1.8411315434       -0.9699628389
 H          5.3699232686       -0.9015947406       -1.1293329275
 H          6.9151823259       -1.7100299034       -1.3587200118
 C          5.2305334035       -2.9475526780       -1.7799811805
 H          5.3045396544       -2.6684208068       -2.8340578138
 H          5.7844991217       -3.8789195413       -1.6434581749
 C          3.7561904844       -3.2082777141       -1.4625478248
 H          3.6455787542       -3.7856635601       -0.5484001490
 H          3.3529275365       -3.8277660609       -2.2690382925
 C          2.8867249086       -1.9561659714       -1.4021109435
 H          1.8320444774       -2.2602378560       -1.4193123594
 H          3.0307357614       -1.3755903756       -2.3206350375
 H          6.5478661179       -3.0434627481        0.6963626271
 H          6.6002021353       -1.2984625829        0.9686068717
 H          4.8583387402       -2.0491046709        2.3429256860
 H          4.1998828053       -3.1476574026        1.1373312183
 O          3.6970747641       -0.1203564860        1.8375753790
 C          2.9461117126        1.0314990868        1.7103572735
 O          3.0008996382        1.7926566658        2.6978546612
 O          1.4647201192        0.3247139952       -1.5106834215
 C          1.3911811594        2.4970305805        0.4475906670
 C         -0.0178149986        2.1587982548        0.0253064761
 C         -0.6344494406        2.6708384221       -1.1076851209
 C         -1.9234339903        2.2872138304       -1.4353187628
 C         -2.6240549005        1.3951128468       -0.6448648954
 C         -2.0156677563        0.8752190628        0.4902443367
 C         -0.7283696101        1.2667276428        0.8198989029
 H         -0.2505046207        0.8547284830        1.7018993220
 N         -2.7222120209       -0.0304146705        1.3056034864
 S         -3.3575567718       -1.4027115359        0.5703972650
 O         -3.4726354452       -2.3771833733        1.6348520803
 O         -2.5844167854       -1.8013923228       -0.5828967526
 C         -4.9901914791       -0.8957014592        0.0728592262
 C         -5.8464794790       -0.4151284189        1.0442665028
 C         -7.1223081544       -0.0201340023        0.6750221590
 C         -7.5186945334       -0.1143827914       -0.6508851543
 C         -6.6483426731       -0.6027285649       -1.6133737239
 C         -5.3700857635       -0.9986407150       -1.2508941592
 H         -4.6560800524       -1.3781823561       -1.9645725764
 H         -6.9581469882       -0.6758995463       -2.6434658425
 H         -8.5121261249        0.1940597953       -0.9359267504
 H         -7.8019970248        0.3599110903        1.4205725799
 H         -5.4996182321       -0.3623868303        2.0626977101
 H         -2.2166418948       -0.2931624067        2.1399317626
 H         -3.6249799404        1.0893741254       -0.9023419505
 H         -2.3879385373        2.6858671645       -2.3243116432
 H         -0.0958563215        3.3464992732       -1.7513084837
 H          1.3475680853        2.8757724689        1.4826312452
 C          2.0284586480        3.5977235278       -0.3866982654
 C          3.5180221412        3.6930393940       -0.5250517320
 C          2.6770183797        3.3310208623       -1.7103299428
 H          2.5584180349        4.0640834436       -2.4949121971
 H          2.6900635530        2.3123383948       -2.0633360681
 H          3.9742588608        4.6710881067       -0.4941894846
 H          4.1136819732        2.9193498194       -0.0620942474
 H          1.4967458842        4.5387322535       -0.2849924908
