  62
        -98.94418223
 C         -1.5940133382       -1.4571979479        0.3803361531
 C         -1.7526517535       -0.2524670608        1.1158320844
 C         -3.0203763606        0.4657545390        0.9342779293
 C         -3.9636991223       -0.0638343454        0.1350486585
 C         -5.2935081450        0.5657456008       -0.1613703944
 C         -5.2281604964        1.4498573299       -1.4143521840
 C         -4.0557960466        2.4306617127       -1.4168659089
 H         -3.1213762036        1.8676851023       -1.4762411068
 H         -4.1318330539        3.0249520615       -2.3299237327
 C         -4.0075574437        3.3654073497       -0.2001990009
 H         -3.7965164737        4.3791960101       -0.5466752372
 H         -4.9817095982        3.3881148000        0.2895240940
 C         -2.9290384257        3.0105107288        0.8251440937
 H         -2.8217571524        3.8547591659        1.5115031388
 H         -1.9743753562        2.8741827664        0.3120854107
 C         -3.1994800980        1.7615516857        1.6740766707
 H         -2.4702428291        1.7431759084        2.4894394580
 H         -4.1980565747        1.8212606436        2.1120254759
 H         -6.1671296294        2.0004639815       -1.4966089104
 H         -5.1359425803        0.8031963043       -2.2900031252
 H         -5.6082584961        1.1561302160        0.6970917127
 H         -6.0203582386       -0.2312683169       -0.3276252213
 O         -3.7902252375       -1.2307064167       -0.5316443119
 C         -2.6015690973       -1.9444687713       -0.4529879788
 O         -2.5972123778       -2.9693306433       -1.1628475331
 O         -0.8736951293        0.1965673611        1.8983967020
 C         -0.2744952379       -2.1874463529        0.5615451755
 C          0.7043771837       -1.8593694995       -0.5410840362
 C          0.4153891787       -2.1310146206       -1.8745033258
 C          1.3368206214       -1.8353169714       -2.8620595897
 C          2.5553482046       -1.2614022780       -2.5438514924
 C          2.8559704714       -0.9900167307       -1.2141180135
 C          1.9298190474       -1.2914465017       -0.2242053963
 H          2.1791517982       -1.0848916702        0.8049067351
 N          4.0951814546       -0.4384051163       -0.8648883205
 S          4.2617322187        0.6088453936        0.4247334548
 O          5.5426766291        1.2416730405        0.1960634864
 O          4.1253098656       -0.1087193362        1.6668640517
 C          2.9590849223        1.8116761958        0.2424524644
 C          3.0241606182        2.6731057369       -0.8363499080
 C          2.0206146234        3.6116609702       -1.0062904305
 C          0.9733004076        3.6746286812       -0.0984576268
 C          0.9265624186        2.8081751116        0.9815917806
 C          1.9262934577        1.8643024350        1.1540327751
 H          1.9025857183        1.1723870651        1.9798707920
 H          0.1124466443        2.8392688822        1.6874306797
 H          0.1911273936        4.4060355342       -0.2314500838
 H          2.0552704046        4.2906498949       -1.8431408950
 H          3.8618166146        2.6070689779       -1.5115731103
 H          4.6816857650       -0.1765932248       -1.6429645212
 H          3.2729420641       -1.0328865366       -3.3168793829
 H          1.1025478475       -2.0517791992       -3.8934511990
 H         -0.5358739139       -2.5739530566       -2.1264824073
 H          0.1441616910       -1.7946288421        1.4985636770
 C         -0.4195276537       -3.6905170786        0.7021537387
 C          0.6765696222       -4.4624800256        1.3706806908
 C         -0.6425207598       -4.2827597846        2.0595284350
 H         -1.3010051443       -5.1337884317        2.1479551839
 H         -0.6903749116       -3.6053534820        2.8999481441
 H          0.9268214893       -5.4392547100        0.9860732563
 H          1.5246891387       -3.9075736900        1.7440718240
 H         -0.9270874339       -4.1554393482       -0.1326854192
