  62
        -98.94467866
 C          2.5557229809        0.8702393382        0.2868075536
 C          2.5100146768       -0.0152242954       -0.8174780354
 C          2.8251806860       -1.4221252130       -0.5296982268
 C          3.1589288401       -1.7890716704        0.7196974362
 C          3.4483304242       -3.1942377273        1.1585570631
 C          2.1817939277       -3.8906404414        1.6746207697
 C          0.9769175204       -3.7732602104        0.7399926349
 H          0.1637785122       -4.3510182642        1.1857094075
 H          0.6377109748       -2.7347976876        0.6998829895
 C          1.2266189290       -4.2714595097       -0.6900619008
 H          2.1008775856       -4.9240560386       -0.7117345860
 H          0.3662904032       -4.8655154470       -1.0057456363
 C          1.3947546655       -3.1565875824       -1.7243679938
 H          0.5747207812       -2.4401004537       -1.6147902657
 H          1.3099554658       -3.5996557408       -2.7209381275
 C          2.7261881865       -2.3949648920       -1.6703474312
 H          3.5555919354       -3.1050484893       -1.6489323983
 H          2.8073497700       -1.7989445968       -2.5841398681
 H          2.4128117987       -4.9451984246        1.8373374865
 H          1.9106797124       -3.4487265487        2.6360623951
 H          3.8667946825       -3.7513061696        0.3227015134
 H          4.1837946340       -3.1567944708        1.9641660009
 O          3.2354439759       -0.9067420987        1.7475033801
 C          2.9055363121        0.4235680765        1.5657901123
 O          2.9758903600        1.1113989045        2.6040113337
 H          0.3730393686        1.3758823436       -1.5795435826
 C         -0.1178106428        1.8248115221       -0.7288647732
 C          0.6449206198        2.4072278500        0.2734068572
 C         -0.0116270525        2.9581732100        1.3677127996
 C         -1.3923342727        2.9124678182        1.4594713755
 C         -2.1441972219        2.2898809011        0.4777487655
 C         -1.4942692636        1.7376124869       -0.6166967358
 N         -2.2431652220        1.0003640690       -1.5739180621
 S         -2.4840627659       -0.5844793984       -1.0334035504
 O         -1.3734267828       -1.0454630136       -0.2304873118
 O         -2.7952318126       -1.3647032891       -2.2114184858
 C         -3.9399201938       -0.4183902823       -0.0244769900
 C         -3.8345539545       -0.4979775737        1.3497935090
 C         -4.9750781541       -0.3270571295        2.1192586238
 C         -6.1925386103       -0.0793420958        1.5035093231
 C         -6.2815859834       -0.0044224312        0.1212073631
 C         -5.1452952222       -0.1739555458       -0.6533515809
 H         -5.1662583138       -0.1285238662       -1.7294136958
 H         -7.2303540113        0.1871992106       -0.3534865718
 H         -7.0773209985        0.0556548488        2.1053867147
 H         -4.9071992483       -0.3847257145        3.1937685286
 H         -2.8654219702       -0.6873520364        1.7837299962
 H         -1.7659177647        0.9494132232       -2.4652458432
 H         -3.2173127536        2.2219463798        0.5549088852
 H         -1.8865678578        3.3462903053        2.3152084877
 H          0.5720712634        3.3987824890        2.1630018393
 C          2.1517647660        2.3378456519        0.2084562898
 H          2.5527917870        2.8083143797        1.1159501980
 C          2.7069913062        3.0681005440       -0.9968363181
 C          2.7928800451        4.5634152616       -0.9586042548
 C          4.0423933716        3.7385830450       -0.8939002026
 H          4.6953189625        3.7174403715       -1.7534061828
 H          4.5626462820        3.6725210991        0.0506820384
 H          2.5861896533        5.1136026596       -1.8636082282
 H          2.4675330191        5.0597850950       -0.0569226414
 H          2.4602651283        2.5998417414       -1.9401494831
 O          2.2242687746        0.3241748568       -1.9990762774
