  62
        -98.93770161
 C         -2.2532914861        0.7406546780        0.1148999756
 C         -3.5773667921        1.2109074011        0.3120909478
 C         -4.6397480105        0.4505881217       -0.3546343944
 C         -4.3175280233       -0.5851392672       -1.1497142833
 C         -5.2841355144       -1.4525447903       -1.9094430619
 C         -5.8834706951       -2.5932223664       -1.0752537093
 C         -6.9120147823       -2.1638518820       -0.0280487286
 H         -7.6734321705       -1.5434667860       -0.5016328698
 H         -7.4047969848       -3.0711463163        0.3268657333
 C         -6.3178744980       -1.4222878095        1.1777096321
 H         -5.2397851116       -1.5967498859        1.2170320180
 H         -6.7396831196       -1.8286503254        2.0997418195
 C         -6.5775521440        0.0844048197        1.1858541815
 H         -6.0822041478        0.5128682832        2.0610894916
 H         -7.6494234765        0.2706119617        1.2812173390
 C         -6.0617360651        0.8199217509       -0.0580185528
 H         -6.6984553176        0.6032341406       -0.9152326551
 H         -6.0915110296        1.8939587002        0.1404581915
 H         -6.3694102458       -3.2830876029       -1.7690700648
 H         -5.0688789550       -3.1331272031       -0.5865502835
 H         -6.0866576861       -0.8375168843       -2.3174348881
 H         -4.7234300834       -1.8895217128       -2.7385332419
 O         -3.0300946041       -0.9574055114       -1.3766893379
 C         -1.9673149142       -0.3237886519       -0.7409260227
 O         -0.8543560922       -0.7972857380       -1.0390708161
 O         -3.8563567790        2.2217464745        1.0094861414
 C         -1.1378810196        1.4702039079        0.8407915792
 C          0.0247729840        1.7204206521       -0.0855686830
 C         -0.1733880683        2.5340253110       -1.1982146048
 C          0.8549276082        2.7741611819       -2.0877450947
 C          2.1022411114        2.2111212220       -1.8841089950
 C          2.3150486464        1.4075545760       -0.7701362464
 C          1.2801693118        1.1723780476        0.1243708476
 H          1.4604959006        0.5242078980        0.9642047739
 N          3.5953462690        0.8773043915       -0.5236066953
 S          3.8085994442       -0.6480209905        0.1639253561
 O          3.2566607037       -1.6792233516       -0.6864395769
 O          3.3554608836       -0.6233079525        1.5311015901
 C          5.5914456141       -0.7264811667        0.1308980288
 C          6.2259609285       -1.4055181320       -0.8918001053
 C          7.6115200621       -1.4361980395       -0.9191293080
 C          8.3356513663       -0.7887840423        0.0704395659
 C          7.6850636159       -0.1121955830        1.0916306735
 C          6.3001562359       -0.0784776189        1.1246582469
 H          5.7513920066        0.4268120882        1.9020222460
 H          8.2512928124        0.3876616330        1.8608837451
 H          9.4136383497       -0.8141460232        0.0471116214
 H          8.1195025638       -1.9644267198       -1.7098768135
 H          5.6218304599       -1.9030036466       -1.6336391435
 H          4.2031438729        0.9702549821       -1.3271241749
 H          2.9043017016        2.3910900747       -2.5841139526
 H          0.6844974741        3.3990227218       -2.9517678080
 H         -1.1528464776        2.9628660727       -1.3633290981
 H         -1.5772109141        2.4471884738        1.1055478705
 C         -0.7259779718        0.8112463162        2.1488538565
 C         -1.6979529236        0.0065344337        2.9572356292
 C         -0.5488069595       -0.6709978204        2.2758175336
 H          0.2717892536       -1.0385528109        2.8753895413
 H         -0.7442260009       -1.2744772776        1.4023857827
 H         -1.6754407951        0.1036384397        4.0321724642
 H         -2.6887193104       -0.1384533363        2.5514487159
 H         -0.0314579173        1.4283734391        2.7113820306
