  62
        -98.94487044
 C         -1.9262211196       -0.1682237922        0.0267126559
 C         -2.9362725830       -1.0627561237        0.4548693354
 C         -4.2478909488       -0.4647890733        0.7353405039
 C         -4.4066805526        0.8643766980        0.5976091336
 C         -5.7000794532        1.5976328330        0.8023763853
 C         -6.4909681587        1.7053614512       -0.5088875202
 C         -6.6316685850        0.3790145154       -1.2558745693
 H         -7.2318579634        0.5704861713       -2.1480804071
 H         -5.6452380244        0.0556289545       -1.5962347506
 C         -7.2786589482       -0.7458383660       -0.4356967699
 H         -8.0187291329       -1.2520354299       -1.0590492519
 H         -7.8093723528       -0.3233638004        0.4182666622
 C         -6.3017079312       -1.8163708389        0.0539519714
 H         -6.8842228264       -2.6631714308        0.4264880692
 H         -5.7020098526       -2.1760971223       -0.7859255985
 C         -5.3495344370       -1.3867941530        1.1771660608
 H         -5.9212413276       -0.9414741006        1.9938154812
 H         -4.8539328094       -2.2861050956        1.5543722605
 H         -5.9796252314        2.4145408463       -1.1639925469
 H         -7.4812930240        2.1049652365       -0.2829654183
 H         -6.2915581589        1.0782490056        1.5538554942
 H         -5.4721495631        2.6022980691        1.1624392758
 O         -3.4066177279        1.6949580476        0.2063869641
 C         -2.1448174268        1.2036586026       -0.0980409974
 O         -1.3287622489        2.0738284572       -0.4556270601
 H          1.7390446417        0.7073312953       -0.9651808585
 C          1.5775998482        0.6160492075        0.0952270112
 C          0.4800209943       -0.0676799947        0.5916606383
 C          0.3087631930       -0.1418029764        1.9727482530
 C          1.2012702640        0.4697147631        2.8299117228
 C          2.2929725110        1.1587301421        2.3294714161
 C          2.4777534432        1.2335502681        0.9551065033
 N          3.5678961189        1.9404605781        0.4214207164
 S          4.4976652135        1.2715387882       -0.7954521964
 O          5.6968782180        2.0794283948       -0.8209896666
 O          3.7496164082        1.2013847865       -2.0237368738
 C          4.8807703082       -0.3649836938       -0.1998159217
 C          5.9272109696       -0.5072563419        0.6909229400
 C          6.1920868078       -1.7593517527        1.2206632993
 C          5.4026846170       -2.8411395327        0.8603437934
 C          4.3561425330       -2.6815294222       -0.0345543370
 C          4.0890166058       -1.4321122655       -0.5723384106
 H          3.2873038698       -1.2706986088       -1.2737479266
 H          3.7444285649       -3.5241626713       -0.3150628901
 H          5.6050738179       -3.8152034480        1.2770326884
 H          7.0083850386       -1.8878386977        1.9130945114
 H          6.5210625979        0.3581204241        0.9370578405
 H          4.1548040099        2.3818601271        1.1142159250
 H          2.9875860040        1.6458805218        2.9968391441
 H          1.0494236574        0.4100219945        3.8970583465
 H         -0.5465152524       -0.6769844333        2.3623607774
 C         -0.5491753140       -0.7221394604       -0.2952719876
 H         -0.5996689799       -1.7901265720       -0.0363754160
 C         -0.2571822994       -0.5941499426       -1.7746912530
 C          0.6569871295       -1.5719178492       -2.4482113583
 C         -0.8164414149       -1.6137871051       -2.7193237918
 H         -1.1767822626       -1.2814866139       -3.6813960643
 H         -1.3912644198       -2.4228934821       -2.2926901703
 H          1.0735775989       -2.3618349535       -1.8412343915
 H          1.3165826515       -1.2109311982       -3.2237606807
 H         -0.2411065145        0.4362181137       -2.1130613837
 O         -2.7471116272       -2.3003257720        0.6006569653
