  62
        -98.94290928
 C         -2.3338819301       -0.9135301162        0.3964729524
 C         -2.5227075878        0.1601093401       -0.5070898574
 C         -3.5038991153        1.1787295311       -0.1008223036
 C         -4.1280805788        1.0675934667        1.0850815715
 C         -5.1776303223        2.0089914425        1.5986125029
 C         -6.5847546504        1.5452016624        1.1967000915
 C         -6.7206225164        1.1986444344       -0.2859705746
 H         -6.1076157225        0.3212985503       -0.5048749715
 H         -7.7608203506        0.9147718517       -0.4597057109
 C         -6.3349248012        2.3363358568       -1.2416042971
 H         -7.0905573580        2.4052299119       -2.0270334305
 H         -6.3368319307        3.2866437448       -0.7065124368
 C         -4.9855187056        2.1501039700       -1.9378929425
 H         -4.9133484140        2.8879229932       -2.7415836671
 H         -4.9448188705        1.1599807947       -2.3990362937
 C         -3.7465818161        2.3194511567       -1.0494314079
 H         -2.8713406884        2.3573158336       -1.7046585641
 H         -3.8092552601        3.2649109006       -0.5069193226
 H         -6.8363112495        0.6565628611        1.7801389833
 H         -7.2945949966        2.3332222045        1.4545976393
 H         -5.1107671696        2.0357605954        2.6874855391
 H         -4.9870622879        3.0066472752        1.2079624826
 O         -3.9007774488        0.0405514376        1.9415586031
 C         -3.0189525429       -0.9732848469        1.6158397974
 O         -2.9298658210       -1.8668401283        2.4809724716
 H          0.1382369570       -0.1790677514       -1.0494531119
 C          0.6840787204       -0.7113952865       -0.2844343738
 C          0.0444670882       -1.7126752038        0.4320525492
 C          0.7586283417       -2.3842429702        1.4173958028
 C          2.0776495420       -2.0565216815        1.6775503198
 C          2.7089658716       -1.0516778917        0.9665126924
 C          2.0040615705       -0.3739610348       -0.0195776957
 N          2.6213336164        0.6693775444       -0.7293533109
 S          4.1515067363        0.4213009693       -1.3677217471
 O          4.2696380216        1.3701795124       -2.4531953039
 O          4.3699972485       -0.9670566036       -1.7025484815
 C          5.2468479032        0.9104570898       -0.0514133993
 C          5.0737554516        2.1608978543        0.5089015076
 C          5.9244106290        2.5614836690        1.5267410708
 C          6.9302721323        1.7114612109        1.9622227391
 C          7.0935952632        0.4607964567        1.3867067046
 C          6.2451926470        0.0535794815        0.3687421082
 H          6.3303489082       -0.9119646237       -0.1039422177
 H          7.8763508021       -0.1982139171        1.7264312354
 H          7.5905251645        2.0260275901        2.7549679719
 H          5.8001637232        3.5332389011        1.9769531457
 H          4.2817491950        2.7917229592        0.1408009341
 H          2.0123018859        1.1111983622       -1.4030644142
 H          3.7354674785       -0.7914143533        1.1667855571
 H          2.6201191199       -2.5866289846        2.4454570332
 H          0.2685356962       -3.1600309624        1.9875805710
 C         -1.3905433877       -2.0781811358        0.1333631642
 H         -1.6878483004       -2.8614495132        0.8433805307
 C         -1.5189257736       -2.6372116353       -1.2712103022
 C         -1.0895512148       -4.0478950904       -1.5332335181
 C         -2.5454006424       -3.6916430726       -1.5496397874
 H         -3.0630890356       -3.6696253677       -2.4969211469
 H         -3.1600236738       -4.0205796428       -0.7240315995
 H         -0.6027403852       -4.2720933715       -2.4700666094
 H         -0.7179706018       -4.6212860440       -0.6974512069
 H         -1.3381963173       -1.9040009355       -2.0461831557
 O         -1.9149080340        0.2901155269       -1.6049059032
