  62
        -98.94484890
 C         -2.1912858210       -1.3299535183        0.1513147303
 C         -2.1121486205       -0.5086317582       -0.9992686397
 C         -2.9331035995        0.7119076624       -0.9746301396
 C         -3.7105681993        0.9711923729        0.0915847005
 C         -4.5393334083        2.2092579035        0.2711344107
 C         -3.7465829375        3.3049423129        0.9983035207
 C         -2.3509028173        3.5440580818        0.4219068406
 H         -1.7448408180        2.6492931414        0.5823162405
 H         -1.8974280667        4.3518498215        1.0003186607
 C         -2.3337217071        3.9116199819       -1.0689670193
 H         -1.6500648565        4.7506073314       -1.2176322593
 H         -3.3243431369        4.2466663327       -1.3785170893
 C         -1.8700778880        2.7877350417       -1.9980594095
 H         -0.9191874083        2.3820811009       -1.6432909195
 H         -1.6943154677        3.2164186916       -2.9885015194
 C         -2.8501696489        1.6205548924       -2.1690957895
 H         -2.4891693794        1.0008703322       -2.9951739996
 H         -3.8378116386        2.0025299432       -2.4343372794
 H         -3.6375547276        3.0148701927        2.0457548507
 H         -4.3230950468        4.2309341733        0.9601939508
 H         -5.4174963785        1.9525263541        0.8658933707
 H         -4.8659453681        2.5673468438       -0.7032819393
 O         -3.7870840398        0.1440168829        1.1640783005
 C         -3.0270623507       -1.0096802077        1.2271447603
 O         -3.1839982012       -1.6659729177        2.2756512003
 O         -1.4007690007       -0.7578324987       -2.0094204397
 C         -1.3847227120       -2.6114420989        0.3069092401
 C          0.0600314383       -2.2835350400        0.6017334501
 C          0.5513361083       -2.3809339505        1.8993591300
 C          1.8690782685       -2.0660137815        2.1801968100
 C          2.7217289488       -1.6401070321        1.1770632600
 C          2.2342249588       -1.5191947416       -0.1178712400
 C          0.9148432786       -1.8467920106       -0.3997743400
 H          0.5391361386       -1.7314309902       -1.4045608099
 N          3.0774115791       -1.0729363422       -1.1479427900
 S          4.1567519101        0.1641094970       -0.8464049700
 O          4.4356077504        0.7452411869       -2.1402412400
 O          5.2962887397       -0.3550760239       -0.1308343801
 C          3.2899059010        1.3373305176        0.1812682902
 C          3.7323665413        1.5870987371        1.4643140501
 C          3.0413296220        2.4977744976        2.2474805103
 C          1.9276464325        3.1434442185        1.7340870504
 C          1.4998097922        2.8878670189        0.4401213904
 C          2.1824795515        1.9728852985       -0.3444847697
 H          1.8748516012        1.7531191788       -1.3548895197
 H          0.6363458326        3.3965916396        0.0421635405
 H          1.3894130930        3.8526525089        2.3428597204
 H          3.3733033822        2.7009186673        3.2528514303
 H          4.6080397709        1.0698806465        1.8212331201
 H          2.6072150791       -0.9498678617       -2.0325339900
 H          3.7548480890       -1.4074039729        1.3767636499
 H          2.2383676885       -2.1551096718        3.1904263799
 H         -0.1137703119       -2.6988036800        2.6895679100
 H         -1.7994533723       -3.1131704586        1.1909172301
 C         -1.5314808028       -3.5418985087       -0.8810746599
 C         -1.1649299738       -4.9854174390       -0.7202709001
 C         -2.6031200635       -4.5879994579       -0.8609560200
 H         -3.1158673738       -4.8182946274       -1.7829186900
 H         -3.2354897535       -4.6398372775        0.0136132701
 H         -0.6874728543       -5.4915229893       -1.5452975901
 H         -0.8212889040       -5.3077677793        0.2510950499
 H         -1.3215460324       -3.0715845888       -1.8323932899
