  62
        -98.94128903
 C         -1.6306694641       -1.2324158108        0.4853317131
 C         -1.4625437547       -0.0052670609        1.1694144622
 C         -2.3607404764        1.0949273199        0.7824954810
 C         -3.2452736397        0.9029083570       -0.2109679284
 C         -4.3098483242        1.8370904540       -0.7335844725
 C         -3.9667090888        3.3243551003       -0.8664277288
 C         -2.5308771887        3.6163734087       -1.3248449555
 H         -2.0468639187        2.6990226328       -1.6673580040
 H         -2.5593829700        4.3037364542       -2.1727028810
 C         -1.6705776690        4.2503081382       -0.2304603687
 H         -0.8184182664        4.7460347188       -0.7026802111
 H         -2.2547889846        5.0155539506        0.2861737664
 C         -1.1093003696        3.2622224714        0.7895432525
 H         -0.4059671415        2.5922542451        0.2863469003
 H         -0.5480434486        3.8283036326        1.5373499899
 C         -2.1531816599        2.3918857691        1.5102394372
 H         -3.0869975248        2.9308366880        1.6520475797
 H         -1.7519947540        2.1247459677        2.4915498271
 H         -4.6712695336        3.7442854230       -1.5867279937
 H         -4.1487705055        3.8290489893        0.0812047568
 H         -4.5782439034        1.4375631439       -1.7149024692
 H         -5.1907120715        1.7311176267       -0.0926190670
 O         -3.3265214458       -0.2772263588       -0.8894613362
 C         -2.5154516469       -1.3582291583       -0.5832627297
 O         -2.6901074054       -2.3486928529       -1.3195244744
 O         -0.6109816389        0.1584874636        2.0847192110
 C         -0.7298216204       -2.4013255192        0.8515431999
 C          0.2671970854       -2.5815766624       -0.2657037567
 C          0.3672648055       -3.7193299611       -1.0537272480
 C          1.2684819336       -3.7581937793       -2.1048279261
 C          2.0762686745       -2.6733499268       -2.3914547152
 C          1.9925496109       -1.5341820560       -1.5964187884
 C          1.1063797036       -1.5062228873       -0.5337042124
 H          1.0300776707       -0.6197543623        0.0780971414
 N          2.8219607132       -0.4290653789       -1.8289739038
 S          2.3989337697        1.1064344697       -1.3315289684
 O          0.9813267701        1.3538124685       -1.4658318809
 O          3.2569306342        1.9824470987       -2.1041549515
 C          2.8981290798        1.1968073331        0.3770421775
 C          2.5288542919        2.3244971056        1.0826387403
 C          2.9164580754        2.4497510052        2.4065532492
 C          3.6704164246        1.4503238484        3.0007853445
 C          4.0419389389        0.3287999847        2.2768115916
 C          3.6568861698        0.1975343473        0.9516422319
 H          3.9267868152       -0.6694485138        0.3718562978
 H          4.6281742101       -0.4486786208        2.7399976619
 H          3.9677319322        1.5458775255        4.0332156943
 H          2.6258162827        3.3229342460        2.9683405853
 H          1.9401897260        3.0788041007        0.5854537622
 H          3.3470491754       -0.4369770081       -2.6896655836
 H          2.7641118102       -2.7014859525       -3.2226244490
 H          1.3334125736       -4.6439189843       -2.7185380721
 H         -0.2703276946       -4.5656525006       -0.8593625296
 H         -0.1801985551       -2.0734180678        1.7457924142
 C         -1.5214797073       -3.6445921994        1.1886167668
 C         -0.8891407917       -4.7233509151        2.0149996359
 C         -1.9664549683       -3.8636949823        2.6025356576
 H         -2.9399120181       -4.2981493243        2.7734931231
 H         -1.6866314575       -3.1195916712        3.3338562045
 H         -1.1221270606       -5.7519980968        1.7858661446
 H          0.1245630068       -4.5641364562        2.3496380001
 H         -2.2055423944       -3.9365567204        0.4008230767
