  62
        -98.93863892
 C          1.8882022058        1.3437620222        0.3511069381
 C          2.5931184618        0.7681948643       -0.7300772891
 C          3.7802674100       -0.0446123432       -0.3918124206
 C          4.1120924538       -0.2021468835        0.9030857627
 C          5.2437402760       -1.0078276003        1.4836483426
 C          4.9608458345       -2.5190116137        1.4738233573
 C          4.3453404277       -3.0499172309        0.1814990861
 H          4.0887044800       -4.1004781862        0.3426918134
 H          3.4130785254       -2.5178556197       -0.0187055534
 C          5.2472009472       -2.9733197785       -1.0481634717
 H          6.1584853232       -3.5452966711       -0.8594147631
 H          4.7151415112       -3.4586176086       -1.8705174007
 C          5.6419438992       -1.5665564782       -1.5022914672
 H          6.0711256427       -1.6578225491       -2.5043743170
 H          6.4234090828       -1.1554467046       -0.8688840245
 C          4.4812553394       -0.5829729817       -1.6156157833
 H          4.8258714476        0.2989060579       -2.1692390735
 H          3.6961956836       -1.0247984655       -2.2401896778
 H          5.8938895467       -3.0465633865        1.6785107502
 H          4.2647089086       -2.7377393932        2.2874524022
 H          6.1682021135       -0.7827830477        0.9604454442
 H          5.3605707748       -0.6834555887        2.5200931034
 O          3.3832501072        0.3518948820        1.9150298231
 C          2.2649120942        1.1252267858        1.6746453727
 O          1.6950091865        1.5481557513        2.7021875451
 O          2.2524006883        0.9166053743       -1.9325992546
 C          0.6624317762        2.2008070777        0.0918610824
 C         -0.3959289823        1.3885284080       -0.6150673362
 C         -1.0861621989        1.8339469431       -1.7340514881
 C         -2.0457063001        1.0333022707       -2.3309242833
 C         -2.3451623329       -0.2165540167       -1.8226549912
 C         -1.6744197700       -0.6633812891       -0.6903973409
 C         -0.7158628407        0.1402640354       -0.0937431977
 H         -0.1931545294       -0.2101205776        0.7883450811
 N         -1.9872276104       -1.9233543754       -0.1515111604
 S         -3.6064739430       -2.3165134828        0.0107783696
 O         -3.6621731605       -3.2467282298        1.1167236984
 O         -4.1143250664       -2.8054000030       -1.2467965099
 C         -4.4202370215       -0.7860521314        0.4345949187
 C         -5.3916205673       -0.2676031232       -0.3971176154
 C         -5.9862063213        0.9386691082       -0.0627430808
 C         -5.5973265185        1.6042488653        1.0891293420
 C         -4.6219113117        1.0687171755        1.9165855060
 C         -4.0260902111       -0.1380079277        1.5885774456
 H         -3.2676310980       -0.5814834322        2.2142238736
 H         -4.3193469468        1.5870853266        2.8124384474
 H         -6.0562671943        2.5457669279        1.3462995244
 H         -6.7463861835        1.3565144197       -0.7027626485
 H         -5.6608038692       -0.8165117332       -1.2847196898
 H         -1.4687124950       -2.1530585594        0.6831582744
 H         -3.0773226414       -0.8577971066       -2.2859359098
 H         -2.5653495807        1.3871511541       -3.2080007342
 H         -0.8663781232        2.8042324182       -2.1471346183
 H          0.2716742221        2.4742819517        1.0830934630
 C          1.0516270846        3.4658571585       -0.6435248043
 C          0.2495340638        4.7187420340       -0.4649075784
 C          1.6158416832        4.6109372903        0.1407362399
 H          2.4214140954        5.1851687555       -0.2917281363
 H          1.6958728501        4.4868872843        1.2112249741
 H          0.1182124343        5.3726903490       -1.3136789574
 H         -0.6016826603        4.6773977802        0.1974877157
 H          1.4841382801        3.2650082032       -1.6166913521
