  62
        -98.94868528
 C          1.0592285883        1.7173472042        0.1309828715
 C          1.6674480239        0.9072345313        1.1185372918
 C          2.8216047706        0.1110624861        0.6812971524
 C          3.2267713418        0.1906672545       -0.5993250573
 C          4.3757328587       -0.5789398406       -1.1829111166
 C          3.9190660630       -1.9163549784       -1.7803393072
 C          3.0508506586       -2.7557946947       -0.8427251980
 H          2.0852579007       -2.2608688303       -0.7115810086
 H          2.8434679946       -3.6987823036       -1.3545152083
 C          3.6842155463       -3.0457641678        0.5252004024
 H          3.5157732713       -4.0971163171        0.7684125721
 H          4.7631941170       -2.8940375927        0.4718635032
 C          3.1111230992       -2.2256076054        1.6820639522
 H          2.0207812689       -2.2988572504        1.6682124114
 H          3.4567196665       -2.6726941472        2.6181470223
 C          3.5039818260       -0.7431989372        1.7130351327
 H          4.5890488164       -0.6510997021        1.6295238135
 H          3.1987379471       -0.3385929260        2.6827621926
 H          3.3390306746       -1.7146261356       -2.6841720676
 H          4.8066025306       -2.4857846124       -2.0646358867
 H          4.8237039920        0.0252571675       -1.9740995462
 H          5.1194320574       -0.7524996342       -0.4069441762
 O          2.6171966660        0.9774073674       -1.5221390076
 C          1.5106511393        1.7465792924       -1.1889996882
 O          1.0391355130        2.4045074147       -2.1361365184
 O          1.2668685928        0.8558943329        2.3133969315
 C         -0.1462060582        2.5512208696        0.5150068108
 C         -1.3923574796        2.1245077755       -0.2254150101
 C         -2.4814590657        2.9741580404       -0.3903375707
 C         -3.6227506972        2.5325548958       -1.0360621116
 C         -3.7144486728        1.2384061363       -1.5167691919
 C         -2.6314079068        0.3815610713       -1.3583770813
 C         -1.4885999152        0.8315787060       -0.7163549904
 H         -0.6452207783        0.1664214621       -0.6316052700
 N         -2.6703219724       -0.9309064384       -1.8442737016
 S         -1.7598966385       -2.1500652927       -1.1632924112
 O         -0.3599318974       -1.9644258990       -1.4507185802
 O         -2.3582125736       -3.3609418799       -1.6840314218
 C         -2.0611678292       -2.0423723417        0.5906082486
 C         -3.3206356810       -2.3692137960        1.0553782777
 C         -3.5857287614       -2.2550589751        2.4099976975
 C         -2.5960416900       -1.8083644397        3.2735543083
 C         -1.3358153782       -1.4889645654        2.7937030092
 C         -1.0649148078       -1.6112017264        1.4405658194
 H         -0.0930655664       -1.3660581907        1.0412267101
 H         -0.5594010070       -1.1270971590        3.4493528798
 H         -2.8054948403       -1.7100561690        4.3270066782
 H         -4.5626704128       -2.5090696907        2.7885734568
 H         -4.0612423021       -2.7195456625        0.3550450871
 H         -3.5654876337       -1.2503407243       -2.1807078523
 H         -4.6056526240        0.8967472804       -2.0199587226
 H         -4.4575539541        3.2048625996       -1.1630497921
 H         -2.4314547713        3.9843793001       -0.0177995505
 H         -0.3102922499        2.3469512802        1.5850003107
 C          0.1510184486        4.0292951683        0.3460156013
 C         -0.3796874475        5.0347166906        1.3228093411
 C          1.0791908610        4.6944810439        1.3169052721
 H          1.7829137146        5.4224516908        0.9422070227
 H          1.4665818377        4.0886916520        2.1232593522
 H         -0.6790822728        6.0035482920        0.9520510711
 H         -0.9757083897        4.6702507131        2.1459462306
 H          0.2290351007        4.3183925982       -0.6959890886
