  62
        -98.94054898
 C         -2.3712048932       -0.7674581077       -0.1148554854
 C         -3.5523915134       -1.0662038115        0.6054420951
 C         -4.8011174514       -0.5672242985        0.0194930643
 C         -4.7686308528        0.1069973156       -1.1446260638
 C         -5.9593064751        0.6620946060       -1.8784909562
 C         -6.4145742266        2.0393135507       -1.3763008179
 C         -7.1126293747        2.0377498487       -0.0156893875
 H         -7.5681300592        3.0217736436        0.1116702127
 H         -7.9192398390        1.3041047893       -0.0232787750
 C         -6.1805377802        1.7683680754        1.1739097424
 H         -5.1435825011        1.9218450645        0.8658197689
 H         -6.3874639578        2.4878069334        1.9694262176
 C         -6.3147834346        0.3715252085        1.7804860346
 H         -7.3115216639        0.2528308383        2.2109879451
 H         -5.5854405107        0.2769092763        2.5891291241
 C         -6.0716311449       -0.7731565798        0.7880401127
 H         -5.9703576499       -1.7024104814        1.3539528452
 H         -6.9174433771       -0.8678068794        0.1076216937
 H         -5.5464671047        2.7015319158       -1.3401438321
 H         -7.1095187907        2.4422532903       -2.1165970903
 H         -5.6610764651        0.7584033444       -2.9246095668
 H         -6.7892928655       -0.0422035914       -1.8167038308
 O         -3.6130663173        0.3538075200       -1.8179924587
 C         -2.3867889473       -0.0553461819       -1.3139446733
 O         -1.4105956544        0.2666102506       -2.0176982194
 O         -3.5613760025       -1.7142271102        1.6865534309
 C         -1.0371797410       -1.2313901213        0.4387555123
 C         -0.1233948249       -0.0526321989        0.6666136993
 C         -0.6070123136        1.0487089063        1.3697133975
 C          0.1973302955        2.1459351551        1.6055569152
 C          1.5080372170        2.1636386308        1.1611595482
 C          2.0020096348        1.0694050487        0.4624340417
 C          1.1872509635       -0.0285102416        0.2192107458
 H          1.5987582984       -0.8613007884       -0.3255956968
 N          3.3209520060        1.0628889904       -0.0195627241
 S          4.1685311277       -0.3973640139       -0.0202826391
 O          3.8387052943       -1.1362950668       -1.2126793940
 O          3.9676076840       -1.0858580176        1.2349044659
 C          5.8433946637        0.2061218114       -0.1322005362
 C          6.5971110929        0.3334686663        1.0193747033
 C          7.8872859694        0.8311549957        0.9246382887
 C          8.3979563143        1.1939275288       -0.3125859275
 C          7.6297361470        1.0597855812       -1.4597312502
 C          6.3395502278        0.5615700192       -1.3723874794
 H          5.7087421094        0.4313738654       -2.2363992812
 H          8.0311100814        1.3402929678       -2.4201804137
 H          9.4020728959        1.5811194480       -0.3839852960
 H          8.4882054496        0.9333265784        1.8138704362
 H          6.1614149463        0.0303992584        1.9578561444
 H          3.8798902523        1.8183875100        0.3528898140
 H          2.1384404392        3.0198682603        1.3473565338
 H         -0.1953483843        2.9931888341        2.1477268420
 H         -1.6282393638        1.0311532756        1.7264094063
 H         -1.2654041815       -1.6788208592        1.4184831413
 C         -0.4358253982       -2.2985095714       -0.4508192301
 C          0.5089478057       -3.3120734434        0.1200655189
 C         -0.8736546267       -3.7218279800       -0.2872501952
 H         -0.9929904831       -4.3294375310       -1.1716317205
 H         -1.5941034869       -3.9321683479        0.4896829435
 H          1.3463038676       -3.6306463133       -0.4833081768
 H          0.7343167514       -3.2467438317        1.1741708827
 H         -0.2513763791       -1.9441429185       -1.4596107053
