  62
        -98.94736427
 C         -1.7699777922       -1.2049648277       -0.4339585984
 C         -1.2097226922       -1.8611880108        0.6917268139
 C         -0.0663262290       -2.7494521187        0.4128155322
 C          0.3934401718       -2.8738571814       -0.8441482905
 C          1.5807186247       -3.6942303720       -1.2552622876
 C          2.8759332854       -2.8717176316       -1.2251636163
 C          3.1076255524       -2.1173682098        0.0843156585
 H          4.0814594529       -1.6274625644        0.0103878298
 H          2.3646728169       -1.3238192634        0.1883615992
 C          3.0691773256       -2.9927327483        1.3440028968
 H          3.2097676716       -4.0415304974        1.0774652385
 H          3.8997345997       -2.7065921730        1.9927890723
 C          1.7901651318       -2.8407172641        2.1703456769
 H          1.5897221354       -1.7790124475        2.3377820830
 H          1.9600545520       -3.2990112708        3.1490037913
 C          0.5311876120       -3.4872901745        1.5774471957
 H          0.7436961883       -4.5241469756        1.3049285579
 H         -0.2366031679       -3.4874074132        2.3570438786
 H          3.7135428936       -3.5478648402       -1.4064749280
 H          2.8451648089       -2.1411846070       -2.0367098322
 H          1.6685028645       -4.5523607068       -0.5916186656
 H          1.4126134504       -4.0498790118       -2.2734283253
 O         -0.1664615052       -2.2284273547       -1.8989504131
 C         -1.2478834132       -1.3827329556       -1.7191644632
 O         -1.6562433616       -0.8513225999       -2.7710928605
 H         -0.9650230949        0.6731231606        1.3150702722
 C         -1.3498337007        1.4598892944        0.6844913185
 C         -2.3743494004        1.1955322634       -0.2128434722
 C         -2.8689461045        2.2381754473       -0.9874661119
 C         -2.3399108500        3.5110990608       -0.8744084134
 C         -1.2856007848        3.7594204613       -0.0140027444
 C         -0.7823565982        2.7236700899        0.7645794737
 N          0.3116924962        2.9339418470        1.6241290852
 S          1.6191362783        1.8904738655        1.5310432358
 O          1.2633168662        0.5948612133        2.0430487096
 O          2.6811879167        2.5846259501        2.2263557965
 C          2.0070306321        1.7898968847       -0.2065164976
 C          2.9445895434        2.6564604453       -0.7335468818
 C          3.2126964701        2.6088957566       -2.0919623928
 C          2.5333734982        1.7091275515       -2.9000168781
 C          1.5919303568        0.8482627049       -2.3575203948
 C          1.3277818019        0.8858367471       -0.9977815281
 H          0.6011724959        0.2248590520       -0.5512925753
 H          1.0482623108        0.1515251300       -2.9775495844
 H          2.7366349901        1.6751481889       -3.9587260702
 H          3.9465056286        3.2739594527       -2.5179460605
 H          3.4524788680        3.3356424780       -0.0680705453
 H          0.6391404975        3.8896993804        1.6433212474
 H         -0.8510536247        4.7450857503        0.0546656692
 H         -2.7351619783        4.3128379001       -1.4789550205
 H         -3.6616504074        2.0417201881       -1.6934335105
 C         -2.9170077035       -0.2080884145       -0.3616000709
 H         -3.4234991905       -0.2615902248       -1.3359603343
 C         -3.9393411638       -0.4938219391        0.7195726242
 C         -5.3469738784       -0.0143488698        0.5368175472
 C         -5.0362424315       -1.4780774038        0.4527233719
 H         -5.3508453001       -2.1253621643        1.2572304001
 H         -5.0581107630       -1.9493919620       -0.5193505012
 H         -5.8807598652        0.3491492303        1.4013252042
 H         -5.5887433118        0.5031486002       -0.3790133779
 H         -3.5252457113       -0.4718921615        1.7188805317
 O         -1.6246200273       -1.7368743200        1.8735577073
