  62
        -98.93316290
 C          2.7224585929        0.5146485112       -0.2309274384
 C          2.2134453798        1.3368361248        0.8038929389
 C          1.4416050979        2.5123301059        0.3626084536
 C          1.2672710945        2.7551795751       -0.9469952135
 C          0.4843562766        3.8886733128       -1.5525694473
 C         -1.0348191558        3.8329981669       -1.2951737290
 C         -1.5003035557        4.6923330570       -0.1128344130
 H         -0.7702359327        5.4860595735        0.0517701246
 H         -2.4397818849        5.1798411459       -0.3810688270
 C         -1.7439458532        3.9455497246        1.2027564614
 H         -1.7936756687        4.6863414424        2.0042958499
 H         -2.7132649094        3.4433846381        1.1555954039
 C         -0.7078791569        2.8841680409        1.5746972009
 H         -0.8905496013        2.5727648914        2.6058432097
 H         -0.8606014122        1.9894440991        0.9656308049
 C          0.7610057608        3.3274087204        1.4241867989
 H          0.8221148656        4.3899975892        1.1923141073
 H          1.2996986514        3.1422032255        2.3559887859
 H         -1.5278251414        4.1961013229       -2.1985068920
 H         -1.3330586581        2.7926736526       -1.1567183852
 H          0.8862050558        4.8367779013       -1.1885844470
 H          0.6707502539        3.8338335833       -2.6268806593
 O          1.8257191981        1.9748252912       -1.9116887219
 C          2.5140390989        0.8247793366       -1.5782340386
 O          2.9172866203        0.1679657191       -2.5612052704
 O          2.3823975659        1.1330737193        2.0339379614
 C          3.3853225581       -0.8397285613       -0.0164184891
 C          2.3744632089       -1.9006398679       -0.3814390792
 C          2.7108537953       -2.9885115471       -1.1766790652
 C          1.7423560925       -3.8968065253       -1.5677075413
 C          0.4219387131       -3.7234228035       -1.1957798518
 C          0.0772436336       -2.6428725392       -0.3900623316
 C          1.0574186805       -1.7596246182        0.0328481439
 H          0.7780666129       -0.9241001549        0.6581346508
 N         -1.2525169036       -2.4335354170        0.0098231977
 S         -1.7569280573       -0.8458680299        0.2974283714
 O         -1.2584336371        0.0415687262       -0.7293958543
 O         -1.4352581443       -0.5142449836        1.6614589139
 C         -3.5223958867       -1.0366254785        0.1371799372
 C         -4.1392843870       -0.6826234372       -1.0475208352
 C         -5.5088687331       -0.8592183163       -1.1694215416
 C         -6.2331510083       -1.3874686986       -0.1113762900
 C         -5.6000306583       -1.7375066018        1.0722747628
 C         -4.2316053184       -1.5613301469        1.2014319052
 H         -3.6967932300       -1.8072053149        2.1039676950
 H         -6.1668790303       -2.1449709735        1.8936955685
 H         -7.2984675369       -1.5242373581       -0.2088916194
 H         -6.0035053611       -0.5840463808       -2.0869470557
 H         -3.5353751564       -0.2694346089       -1.8397742760
 H         -1.9204360102       -2.9564924525       -0.5394504075
 H         -0.3391640652       -4.4115944564       -1.5305443877
 H          2.0140725221       -4.7345288033       -2.1918280698
 H          3.7302900956       -3.1014927070       -1.5149130699
 H          4.2015109506       -0.9014371747       -0.7561202293
 C          4.0007381554       -1.0479029782        1.3561207346
 C          3.3280977023       -1.8323087332        2.4379246379
 C          4.5282494987       -2.3981934308        1.7431770175
 H          5.4610753455       -2.4498050436        2.2836137904
 H          4.3666371946       -3.2142532818        1.0553384184
 H          3.4275729932       -1.4717423822        3.4501998726
 H          2.3606955572       -2.2625062048        2.2271029243
 H          4.5779634055       -0.1879147976        1.6761948312
