  62
        -98.93495061
 C         -1.8494153193       -0.6367541401       -0.2057394004
 C         -3.0171156595       -1.1458350997        0.4163783396
 C         -4.3092847293       -0.5393710096        0.0421057093
 C         -4.3120258690        0.4766996702       -0.8399429610
 C         -5.4839388988        1.2798864803       -1.3384192213
 C         -5.9861485187        2.2988265807       -0.3032460616
 C         -6.1086360290        1.7612222111        1.1200449885
 H         -5.1348417591        1.3942208910        1.4493846787
 H         -6.3745889089        2.5996568113        1.7692969882
 C         -7.1570702592        0.6684461613        1.3151207086
 H         -8.1337678091        1.0506254715        1.0099566184
 H         -7.2050282794        0.4535925216        2.3857466887
 C         -6.8974964894       -0.6481785189        0.5793501590
 H         -7.1570960793       -0.5687332791       -0.4729785311
 H         -7.5692942996       -1.3976018787        1.0080360391
 C         -5.4815472295       -1.1944959291        0.7320892893
 H         -5.2242594997       -1.2324818289        1.7967170393
 H         -5.4735786997       -2.2391917092        0.3978965995
 H         -6.9532451386        2.6798236608       -0.6358902519
 H         -5.2826224285        3.1349293406       -0.2838178217
 H         -6.2862124489        0.6179863804       -1.6508304313
 H         -5.1383621885        1.8234679001       -2.2206900014
 O         -3.1628387788        0.9557929599       -1.3922569909
 C         -1.9133065990        0.4296260397       -1.1038187706
 O         -0.9841032188        0.9946448093       -1.7096241707
 O         -2.9881985998       -2.0771417795        1.2650038098
 C         -0.5236265295       -1.2600564903        0.1968993699
 C          0.4576504607       -0.1897925404        0.5961636098
 C          0.4050033906        0.3517528099        1.8763803097
 C          1.2862587808        1.3452608398        2.2627527495
 C          2.2321205310        1.8270260894        1.3750330595
 C          2.2826912510        1.3012937091        0.0915067297
 C          1.4141192209        0.2875849492       -0.2866475402
 H          1.4576938809       -0.1063055811       -1.2900521701
 N          3.2492230513        1.7889278187       -0.8161928603
 S          4.8386386311        1.4787416485       -0.3894527800
 O          5.2159648412        2.3472679887        0.6965131698
 O          5.6085024913        1.6049180080       -1.6063781600
 C          4.8100482307       -0.2161671314        0.1650824804
 C          4.6940321705       -0.4887973810        1.5129727504
 C          4.5724618502       -1.8076560409        1.9203210907
 C          4.5638669701       -2.8241542111        0.9778873510
 C          4.6826175603       -2.5337363315       -0.3728073791
 C          4.8016926006       -1.2169013216       -0.7861435994
 H          4.9009947108       -0.9498384919       -1.8262364294
 H          4.6773580803       -3.3270853617       -1.1031507489
 H          4.4641187898       -3.8495344510        1.2975754112
 H          4.4793085000       -2.0371406306        2.9695299708
 H          4.7051978806        0.3305888391        2.2125481202
 H          3.0796670713        1.4855868085       -1.7647499803
 H          2.9312748311        2.5988158494        1.6545685494
 H          1.2345028607        1.7514658801        3.2615261494
 H         -0.3407776495       -0.0144545197        2.5682924997
 H         -0.7678768497       -1.8509397700        1.0940990701
 C          0.0616501404       -2.2348848907       -0.8148121297
 C         -0.8281002997       -3.1858373707       -1.5563011796
 C         -0.1162815193       -2.0945144010       -2.2956071198
 H          0.7112881107       -2.3664286513       -2.9349466196
 H         -0.6914226191       -1.2588770710       -2.6623682001
 H         -0.4977941098       -4.2042144008       -1.6934865293
 H         -1.8932632697       -3.0871659504       -1.4051561898
 H          1.0173290703       -2.6269938208       -0.4790182895
