  62
        -98.93300095
 C          2.2091392523       -0.1027940904       -0.3962801658
 C          3.3558508224        0.2404942836       -1.1581481137
 C          4.4845948571        0.8399863642       -0.4286734618
 C          4.3653779769        1.0707526904        0.8894903563
 C          5.3648809363        1.7002302979        1.8271600470
 C          6.8334253777        1.2774769458        1.6835205334
 C          7.0512714129       -0.1779068943        1.2440640854
 H          7.7522663016       -0.6550056641        1.9315560771
 H          6.1124778827       -0.7316959791        1.3017137437
 C          7.6272526433       -0.2951789710       -0.1692947535
 H          8.4131352414        0.4535698002       -0.2900822339
 H          8.0928119677       -1.2777190907       -0.2782845299
 C          6.6157142561       -0.1457893883       -1.3051171356
 H          7.1679441875       -0.1300169927       -2.2477843222
 H          5.9601188065       -1.0206188646       -1.3346162684
 C          5.7228623829        1.1038180542       -1.2360770122
 H          5.3795655170        1.3273711541       -2.2498009395
 H          6.2739381968        1.9617286760       -0.8589361767
 H          7.3360383443        1.9390584274        0.9794310564
 H          7.3036309727        1.4381312183        2.6551480653
 H          5.0083452317        1.4520391415        2.8298038958
 H          5.2932262030        2.7865425351        1.7207965492
 O          3.2279276346        0.7705566772        1.5754319698
 C          2.1284170184        0.1768696565        0.9679564445
 O          1.1839143645       -0.0352192652        1.7506862548
 O          3.4310143301        0.0608813591       -2.4023335039
 C          1.0509066519       -0.7434115483       -1.1405612438
 C         -0.2416041645       -0.0382319363       -0.8250965312
 C         -0.5424634657        1.1613130778       -1.4627792205
 C         -1.7188233173        1.8342197361       -1.1895432506
 C         -2.6193171187        1.3249524916       -0.2699207704
 C         -2.3223401729        0.1349771828        0.3788707054
 C         -1.1472139594       -0.5436463551        0.0947880329
 H         -0.9264278313       -1.4635600673        0.6146149157
 N         -3.2520754179       -0.3851905885        1.3153845096
 S         -4.5461413267       -1.1870913583        0.5953479686
 O         -5.1582243721       -1.9724706694        1.6447180301
 O         -4.1232301461       -1.9177105383       -0.5803431027
 C         -5.6353423932        0.1370127782        0.1224920340
 C         -5.7685475054        0.4675238814       -1.2116240626
 C         -6.6073693618        1.5142235594       -1.5609858636
 C         -7.2933444992        2.2076073367       -0.5753735716
 C         -7.1496719716        1.8616397654        0.7602324410
 C         -6.3124453516        0.8164430960        1.1163754335
 H         -6.1749236547        0.5097509912        2.1399318533
 H         -7.6857859799        2.4026973385        1.5232573045
 H         -7.9448396593        3.0221795308       -0.8500334132
 H         -6.7203593446        1.7850189804       -2.5984017015
 H         -5.2127566117       -0.0981421953       -1.9419069504
 H         -2.8143533454       -1.0059730542        1.9828902914
 H         -3.5336867780        1.8472801603       -0.0397470952
 H         -1.9364881400        2.7629857208       -1.6942574637
 H          0.1635565199        1.5622586260       -2.1771194460
 H          1.2825848545       -0.5668593773       -2.2036550262
 C          0.9477660053       -2.2524301055       -0.9672502101
 C          2.1825888414       -3.1015041208       -0.9609505835
 C          1.3601317808       -2.9662523378        0.2836217111
 H          0.7702160581       -3.8138435787        0.6026653572
 H          1.7495154080       -2.3777369208        1.0997562318
 H          2.1678638902       -4.0414942387       -1.4914055133
 H          3.1335413960       -2.5904446152       -1.0000221809
 H          0.0846491845       -2.6561217450       -1.4897187483
