  62
        -98.93679407
 C         -2.4958745426       -1.2760088404        0.2103143156
 C         -2.6441115904       -0.4182668935       -0.9059172770
 C         -3.5169283131        0.7504951338       -0.7081599398
 C         -4.1122087345        0.9322326352        0.4846524314
 C         -4.9590008564        2.1135544222        0.8652404864
 C         -4.0591648272        3.3266740693        1.1771254758
 C         -4.2144995249        4.4945188424        0.2026734846
 H         -3.3916033968        5.1876603796        0.3901484056
 H         -5.1451638187        5.0203290170        0.4257892939
 C         -4.2288627669        4.1268771002       -1.2843378763
 H         -4.0759080745        5.0535729833       -1.8414393006
 H         -5.2172456065        3.7572912892       -1.5611952473
 C         -3.1785458983        3.1030035092       -1.7343419410
 H         -2.3247948519        3.1025868909       -1.0560658643
 H         -2.8049481118        3.4081647309       -2.7137640182
 C         -3.7090358316        1.6649665149       -1.8862227423
 H         -3.1702383839        1.1792222002       -2.7051406788
 H         -4.7675505001        1.6928428955       -2.1587373503
 H         -3.0198763272        2.9902700296        1.1810705516
 H         -4.2737003402        3.6900301284        2.1833981793
 H         -5.6494624478        2.3464335632        0.0578043949
 H         -5.5343477953        1.8308358351        1.7470279453
 O         -3.9415666299        0.0850932472        1.5343146036
 C         -3.1265064943       -1.0305913876        1.4282734866
 O         -3.0414454317       -1.7086895033        2.4733830746
 H         -0.2251809196       -0.4588661193        1.1171629083
 C          0.3658064190       -0.9983724159        0.3857037389
 C         -0.1954447607       -2.0943629474       -0.2581367956
 C          0.5815244268       -2.7880070856       -1.1765405759
 C          1.8738444506       -2.3764888038       -1.4543046686
 C          2.4188417464       -1.2711778382       -0.8279535966
 C          1.6560967170       -0.5779832574        0.1030114073
 N          2.1951441078        0.5551279984        0.7383594064
 S          3.6982888283        0.4104632904        1.4738637526
 O          3.9378211356       -0.9404156172        1.9264998977
 O          3.7219566403        1.4419499638        2.4882540439
 C          4.8489545487        0.8375283720        0.1844871088
 C          5.8751815090       -0.0286829153       -0.1378568563
 C          6.7653691327        0.3305878265       -1.1380804686
 C          6.6144673346        1.5429696758       -1.7934989607
 C          5.5794380226        2.4025395261       -1.4561279488
 C          4.6869638737        2.0501733974       -0.4564410624
 H          3.8712566671        2.6896804566       -0.1627217138
 H          5.4646910261        3.3441170822       -1.9686196109
 H          7.3072875176        1.8200803739       -2.5722784930
 H          7.5704875465       -0.3360954810       -1.4020368306
 H          5.9488897707       -0.9632719819        0.3949448789
 H          1.5453214687        1.0193864486        1.3561467205
 H          3.4212088493       -0.9425367183       -1.0487542633
 H          2.4635521218       -2.9222468412       -2.1748342123
 H          0.1738366681       -3.6499383853       -1.6784709846
 C         -1.6041535917       -2.4992837185        0.1064012433
 H         -1.5773080442       -2.9429909949        1.1132433016
 C         -2.2099259866       -3.5045162504       -0.8516869654
 C         -1.9962852254       -4.9730526431       -0.6449882168
 C         -3.3384390025       -4.3653200599       -0.3721125510
 H         -4.1508819068       -4.5771316444       -1.0507911944
 H         -3.6491003788       -4.2455413530        0.6560207329
 H         -1.3982826493       -5.2780033010        0.2006388971
 H         -1.8905525480       -5.6064436569       -1.5128345304
 H         -2.2627012186       -3.1294753316       -1.8671623259
 O         -2.0754795500       -0.6155372695       -2.0105751426
