  62
        -98.94441251
 C         -1.8022507970       -0.0598290149       -0.4689600666
 C         -2.9907363391        0.1456703615       -1.2098190274
 C         -4.2361976560       -0.2808269295       -0.5587943439
 C         -4.1790581489       -0.8506649904        0.6589161213
 C         -5.3732993799       -1.2825447818        1.4587901667
 C         -5.8633445924       -0.1540494756        2.3770124445
 C         -6.0345432303        1.1891691237        1.6674296361
 H         -5.0545762492        1.5494353731        1.3462046167
 H         -6.4121664229        1.9003848531        2.4052643584
 C         -6.9817843791        1.1531339350        0.4599714526
 H         -7.6453600778        2.0189735574        0.5099420417
 H         -7.6084995876        0.2618920730        0.5074663713
 C         -6.2804007360        1.2076115475       -0.8984578104
 H         -5.5813775418        2.0474740703       -0.9160344329
 H         -7.0372960696        1.3954558134       -1.6646094548
 C         -5.5204046240       -0.0602872498       -1.3079091369
 H         -5.2385985665        0.0466167705       -2.3595082891
 H         -6.1756191518       -0.9286985130       -1.2145272377
 H         -5.1377099796       -0.0254093499        3.1836051895
 H         -6.8135312324       -0.4577722064        2.8201482718
 H         -6.1689702392       -1.5850180035        0.7807286256
 H         -5.0851288473       -2.1383610628        2.0716412584
 O         -3.0158969588       -1.0566204875        1.3286482603
 C         -1.7996379052       -0.6586608442        0.7905694681
 O         -0.8158137319       -0.8923472315        1.5177375458
 H          2.1440236155        0.1142405053       -0.2371727439
 C          1.7625627162       -0.7650085817       -0.7276985340
 C          0.4576042216       -0.7970762099       -1.1935775146
 C          0.0026749310       -1.9531512374       -1.8239849466
 C          0.8267516599       -3.0515696392       -1.9662315341
 C          2.1233080485       -3.0217855837       -1.4825641444
 C          2.5915234775       -1.8716457845       -0.8602242495
 N          3.9164213859       -1.7973625062       -0.4084053569
 S          4.3118485753       -0.9909581850        1.0036517380
 O          5.6312457616       -1.4915927672        1.3318774661
 O          3.3054526507       -1.1457723515        2.0262660171
 C          4.4599569489        0.7166755385        0.5228739907
 C          3.9183112183        1.6937596701        1.3340338355
 C          4.0795511499        3.0245698058        0.9801238011
 C          4.7761496881        3.3524188331       -0.1732321822
 C          5.3132408259        2.3584024108       -0.9772863194
 C          5.1595270894        1.0266761251       -0.6268181961
 H          5.5661477042        0.2278358366       -1.2237937159
 H          5.8518430177        2.6179596748       -1.8742895394
 H          4.8976788463        4.3886681704       -0.4467084734
 H          3.6606796902        3.7977906516        1.6049162107
 H          3.3720148930        1.3920913398        2.2142136934
 H          4.4459684337       -2.6516518570       -0.5044645237
 H          2.7674208986       -3.8818693733       -1.5859792257
 H          0.4574744143       -3.9419539407       -2.4527794864
 H         -1.0123003318       -1.9782504581       -2.1969768313
 C         -0.4802481528        0.3777525269       -1.0728198278
 H         -0.7281320133        0.7193102610       -2.0892951654
 C          0.0998186686        1.5431882222       -0.3000408040
 C          0.9635379817        2.5484078598       -0.9999524708
 C         -0.4232344176        2.9208284511       -0.5717521421
 H         -0.5444704031        3.5987051395        0.2597545841
 H         -1.1865002644        3.0191163530       -1.3299288099
 H          1.1441726009        2.3989203359       -2.0534881604
 H          1.7994592324        2.9722203814       -0.4647334998
 H          0.3325188670        1.2885161003        0.7286555333
 O         -3.0075431148        0.6566958602       -2.3619087110
