  62
        -98.94530918
 C         -2.3692612184       -0.3374312422        0.0951225029
 C         -1.5526744395        0.3051527237       -0.8620742942
 C         -1.5592901713        1.7786080651       -0.8537100690
 C         -2.2834475561        2.4255945338        0.0758215678
 C         -2.5135446093        3.9068883214        0.2597388151
 C         -1.3667371707        4.8716380727       -0.0494408813
 C          0.0160499287        4.3968494986        0.4194003357
 H         -0.0813969779        3.5140487064        1.0554078592
 H          0.4786379500        5.1812763580        1.0216688719
 C          0.9583723744        4.0660213872       -0.7387982409
 H          1.9866322013        4.0860494129       -0.3690251265
 H          0.8664571507        4.8352438666       -1.5091593931
 C          0.7291985483        2.6898680484       -1.3577201761
 H          0.9507635869        1.9269616063       -0.6074312238
 H          1.4420156006        2.5594462776       -2.1758987559
 C         -0.6918635410        2.4357014422       -1.8901309200
 H         -0.6213639348        1.7194177909       -2.7132335192
 H         -1.1404403982        3.3513251397       -2.2686243582
 H         -1.6143114935        5.8145978168        0.4419555143
 H         -1.3349281188        5.0740500341       -1.1187662246
 H         -3.3837277342        4.1832943052       -0.3447666053
 H         -2.8067904060        4.0184181227        1.3071939534
 O         -3.0108556004        1.7608672905        1.0213467257
 C         -3.0726912267        0.3802577784        1.0581766985
 O         -3.7779877468       -0.0822400285        1.9800977629
 H         -0.4505078914       -0.9904261947        1.6554179756
 C         -0.1574965728       -1.8554086978        1.0779688239
 C         -1.0716175620       -2.4509686982        0.2185845710
 C         -0.6715512162       -3.5709254157       -0.5002055095
 C          0.6185365666       -4.0583262147       -0.3796395969
 C          1.5406394337       -3.4287983348        0.4364632257
 C          1.1465978476       -2.3133423296        1.1663402073
 N          2.0511967104       -1.6158130205        1.9947903814
 S          2.3812599099       -0.0236628697        1.5833704358
 O          3.3623505854        0.4172775559        2.5522090504
 O          1.1584605222        0.7341703018        1.5275120125
 C          3.1546700880       -0.1307458896       -0.0221009409
 C          2.3906659364       -0.4222341625       -1.1349588085
 C          3.0281150710       -0.5606434251       -2.3591241128
 C          4.4027040575       -0.4099800873       -2.4512932355
 C          5.1545288133       -0.1190277587       -1.3227642885
 C          4.5268977685        0.0169594935       -0.0956745098
 H          5.0676315488        0.2437320048        0.8090479195
 H          6.2236077904        0.0003004817       -1.3944615470
 H          4.8895084484       -0.5188118423       -3.4076839890
 H          2.4350144045       -0.7853835386       -3.2309955349
 H          1.3194222393       -0.5259448200       -1.0546166471
 H          2.9253687218       -2.1030658120        2.1400554845
 H          2.5549687003       -3.7914860076        0.5090187443
 H          0.9150928496       -4.9287504761       -0.9445930651
 H         -1.3693673432       -4.0591557825       -1.1606349756
 C         -2.4539151531       -1.8527980694        0.1245352205
 H         -3.0043399830       -2.1093435380        1.0421299186
 C         -3.2408250810       -2.3480353404       -1.0726305929
 C         -4.0702063588       -3.5922781285       -0.9749280731
 C         -4.7356076222       -2.2514498063       -1.0426072453
 H         -5.2535786103       -1.9746524289       -1.9485250408
 H         -5.1858745989       -1.8537772999       -0.1443500460
 H         -4.0811490637       -4.1137700696       -0.0297478099
 H         -4.1365865931       -4.2376412081       -1.8378700327
 H         -2.7449420853       -2.1328336957       -2.0122978203
 O         -0.8638458007       -0.3248022836       -1.7076063843
