  62
        -98.94190289
 C         -1.1617503300       -1.4260221081        0.5066461591
 C         -2.1475993665       -1.1871291065       -0.4763278875
 C         -3.2592274817       -0.2899827959       -0.0997279495
 C         -3.2579022875        0.2667427274        1.1257171333
 C         -4.2489533077        1.2380203363        1.7102996322
 C         -4.0628394459        2.6645655793        1.1699686836
 C         -3.8582568104        2.7575065251       -0.3398105220
 H         -3.6412280781        3.8020451199       -0.5800212275
 H         -2.9741275492        2.1790871651       -0.6166021461
 C         -5.0493047789        2.3179447973       -1.1885837360
 H         -5.9171882231        2.9278679244       -0.9279115708
 H         -4.7965576568        2.5280533051       -2.2310017650
 C         -5.4413477964        0.8422706324       -1.0838681204
 H         -6.0021881771        0.6482832769       -0.1735180728
 H         -6.1170382709        0.6266569194       -1.9166945362
 C         -4.2772058969       -0.1359467174       -1.2040044469
 H         -3.7042203575        0.0976671736       -2.1088136409
 H         -4.6826421705       -1.1411309930       -1.3719364279
 H         -4.9298589763        3.2605057016        1.4608714655
 H         -3.1788642652        3.0951196286        1.6478854305
 H         -5.2627945380        0.8882535016        1.5400446008
 H         -4.0767699654        1.2511871319        2.7889539108
 O         -2.2648727912        0.0324056944        2.0314072923
 C         -1.1947734200       -0.7909672470        1.7464918201
 O         -0.3494205828       -0.8807791118        2.6618405084
 O         -2.1095692031       -1.6937213327       -1.6290095285
 C          0.0257109990       -2.3171039747        0.1958576782
 C          0.8531589053       -1.7171951474       -0.9164304992
 C          1.4750334106       -2.4717306662       -1.9034073542
 C          2.2461688779       -1.8532536080       -2.8727438937
 C          2.4366017389       -0.4830896288       -2.8665701564
 C          1.8229311606        0.2793695171       -1.8793853605
 C          1.0357811254       -0.3415806716       -0.9240092095
 H          0.5418834448        0.2651197999       -0.1808455240
 N          1.9872210468        1.6718248368       -1.8202630018
 S          2.0998295312        2.4149079847       -0.3247558475
 O          0.8020681953        2.5023766117        0.2964590388
 O          2.7475822221        3.6787773642       -0.6068017277
 C          3.2025923705        1.3741006955        0.6154132420
 C          2.7349272615        0.5774533538        1.6399426245
 C          3.6283059836       -0.2521784883        2.3009938617
 C          4.9634129461       -0.2716291113        1.9310426471
 C          5.4198252585        0.5420332433        0.9046142350
 C          4.5326175915        1.3701566834        0.2384719471
 H          4.8494796402        2.0266387819       -0.5555927580
 H          6.4599926913        0.5303168577        0.6218062357
 H          5.6509326330       -0.9221431987        2.4481797883
 H          3.2632307814       -0.8800678122        3.0983487900
 H          1.6913983930        0.6009130278        1.9144129857
 H          2.6478957368        2.0528624885       -2.4813799235
 H          3.0436899034       -0.0051810826       -3.6198516296
 H          2.7148397921       -2.4493823337       -3.6407862339
 H          1.3496810943       -3.5419231989       -1.9181527456
 H          0.6473294939       -2.3170772380        1.1045279455
 C         -0.4261403599       -3.7352491371       -0.0848208826
 C          0.4498578473       -4.8947867639        0.2804269785
 C         -0.7927172234       -4.6167913783        1.0700749756
 H         -1.6357061187       -5.2828148777        0.9635979746
 H         -0.6887857924       -4.2013148340        2.0622353528
 H          0.4587728229       -5.7581598845       -0.3676634254
 H          1.4007021642       -4.6781865555        0.7433573152
 H         -1.0301791288       -3.8080716711       -0.9814985061
