  62
        -98.94125128
 C         -1.8633938116       -0.6034955281        0.0132591929
 C         -2.5782067884       -0.0906994756        1.1254991616
 C         -3.6715960314        0.8418578851        0.8228233199
 C         -3.8864360244        1.2074432134       -0.4538020216
 C         -4.9978761552        2.1048688697       -0.9132770330
 C         -6.2484143684        1.2942280536       -1.2819639952
 C         -6.6601848258        0.2748699115       -0.2196286444
 H         -7.5691824286       -0.2152926413       -0.5747933708
 H         -5.8886958263       -0.4951707723       -0.1464656953
 C         -6.9121361454        0.8734213300        1.1713961998
 H         -7.0620135217        1.9505912765        1.0893463427
 H         -7.8337430046        0.4478208794        1.5738987636
 C         -5.8085821948        0.5922039232        2.1929347746
 H         -6.1831165112        0.8673017255        3.1824721024
 H         -5.5917224525       -0.4789611893        2.2122638896
 C         -4.4912605377        1.3475564662        1.9763840750
 H         -4.6928416664        2.4153102531        1.8678833130
 H         -3.8743555364        1.2031621072        2.8683494351
 H         -7.0705249193        1.9900302850       -1.4591578459
 H         -6.0508200945        0.7577715761       -2.2129528044
 H         -5.2330950375        2.8170733017       -0.1245374336
 H         -4.6567345665        2.6517096752       -1.7940276301
 O         -3.1288217834        0.7604062837       -1.4859913879
 C         -2.1041725631       -0.1591033749       -1.2881734610
 O         -1.5048959770       -0.4743627454       -2.3316090695
 O         -2.3083519761       -0.3953022186        2.3185102689
 C         -0.7507280274       -1.5977350949        0.2937981803
 C          0.5096347469       -1.1872441470       -0.4250185119
 C          1.1697629346       -1.9871540646       -1.3472140645
 C          2.3188976185       -1.5335040109       -1.9722396665
 C          2.8363371858       -0.2837139798       -1.6893532123
 C          2.1887592773        0.5213760065       -0.7599201638
 C          1.0431595590        0.0622462204       -0.1296834039
 H          0.5354080289        0.6937084430        0.5895917199
 N          2.7105793223        1.7904974675       -0.4582030889
 S          4.3613609430        1.9321830824       -0.2286554322
 O          4.5237316252        3.0719095816        0.6468923452
 O          5.0256963634        2.0211669061       -1.5050430954
 C          4.8481779032        0.4298074810        0.6020087888
 C          4.2850671985        0.1566378560        1.8329896161
 C          4.6222884842       -1.0220810718        2.4777243178
 C          5.5125746414       -1.9034936605        1.8832381884
 C          6.0738938848       -1.6120989558        0.6499558143
 C          5.7385205667       -0.4352334550       -0.0004231202
 H          6.1490951989       -0.1705653343       -0.9611440870
 H          6.7675226973       -2.2981606940        0.1913310844
 H          5.7700704960       -2.8219949675        2.3865297461
 H          4.1869744102       -1.2497641174        3.4375629197
 H          3.6005270997        0.8653815092        2.2712217358
 H          2.1941737835        2.2927884064        0.2480984073
 H          3.7176212697        0.0903629610       -2.1845937707
 H          2.8147308886       -2.1605175936       -2.6973313392
 H          0.7702045792       -2.9552293007       -1.5993935257
 H         -0.5669606682       -1.4951734628        1.3767647939
 C         -1.1371603641       -3.0506532936        0.0614622941
 C         -2.5626841407       -3.4974264858        0.1823612061
 C         -1.8875144544       -3.5008956103       -1.1546892689
 H         -1.6277652952       -4.4536716238       -1.5926244512
 H         -2.1662286826       -2.7506476320       -1.8776210127
 H         -2.7665561811       -4.4432367880        0.6615493298
 H         -3.3097498791       -2.7409829399        0.3754465844
 H         -0.3884704816       -3.7339499772        0.4501355089
