  62
        -98.94015335
 C         -1.9855943807       -1.4918919876       -0.0351904286
 C         -1.7786161894       -0.2217577699       -0.6204148566
 C         -2.9757335067        0.6196611845       -0.7901002548
 C         -4.1752944926        0.1445798020       -0.4134045213
 C         -5.5234218610        0.8103697732       -0.5305237012
 C         -5.6135558913        2.2930054809       -0.1412074570
 C         -4.6523323686        2.7328475668        0.9728930010
 H         -4.2039129685        1.8588977641        1.4484062111
 H         -5.2187969938        3.2651308420        1.7393559125
 C         -3.5474745615        3.6666049285        0.4730384680
 H         -3.1439892680        4.2194549887        1.3246982114
 H         -3.9901588318        4.3955032339       -0.2093790848
 C         -2.3691114436        2.9833923036       -0.2209088901
 H         -1.7703157603        2.4387817072        0.5145647343
 H         -1.7341000937        3.7670333216       -0.6419026065
 C         -2.7385568564        1.9967413428       -1.3405679883
 H         -1.8784301240        1.9094071949       -2.0103730476
 H         -3.5901354701        2.3525929920       -1.9154794722
 H         -6.6427018987        2.4744288929        0.1732154255
 H         -5.4419418412        2.9113602153       -1.0212355612
 H         -6.1866052284        0.2225583968        0.1085735784
 H         -5.8759696175        0.6878574651       -1.5587027256
 O         -4.3299602805       -1.0956479349        0.1320961996
 C         -3.2506856079       -1.9349556228        0.3458892404
 O         -3.5412808128       -3.0260064581        0.8770405473
 O         -0.6503277470        0.1937199203       -0.9897225062
 C         -0.8065324413       -2.4207857606        0.1904890553
 C          0.2428147659       -1.7269105980        1.0243929660
 C         -0.1387490219       -1.1453100622        2.2318389522
 C          0.7845576636       -0.4987416287        3.0293971227
 C          2.1091734575       -0.4101162631        2.6361314633
 C          2.5022078826       -0.9918372373        1.4379592313
 C          1.5737465682       -1.6563503930        0.6458871442
 H          1.9098820133       -2.0938145740       -0.2786788934
 N          3.8458659442       -0.9407183864        1.0215110394
 S          4.2329420401       -0.3019714287       -0.4783585553
 O          3.6005222300       -1.0701771315       -1.5181977908
 O          5.6796395541       -0.2715254718       -0.4968681064
 C          3.6070550779        1.3679572697       -0.4375721872
 C          2.2559271948        1.5948488000       -0.6055667583
 C          1.7843187149        2.8950142688       -0.5059104515
 C          2.6591719845        3.9372798276       -0.2440991573
 C          4.0141219869        3.6907664678       -0.0787902323
 C          4.4932062103        2.3944716282       -0.1701391733
 H          5.5378712374        2.1557215981       -0.0512313543
 H          4.6950648513        4.5020218513        0.1229729390
 H          2.2827765282        4.9454473541       -0.1690669807
 H          0.7280590695        3.0709299363       -0.6327656767
 H          1.5804411544        0.7795506664       -0.8103739838
 H          4.4697383472       -0.5511353905        1.7146957025
 H          2.8319459146        0.1009528924        3.2540771317
 H          0.4713771789       -0.0532715915        3.9616082806
 H         -1.1759072540       -1.2082571514        2.5338357579
 H         -1.1956033179       -3.2719980125        0.7686250852
 C         -0.2848980746       -2.9343675774       -1.1351931899
 C          0.3976205599       -4.2658436992       -1.2100879204
 C         -0.9743970801       -4.0929156860       -1.7876526359
 H         -1.0868230606       -4.0885074270       -2.8615263521
 H         -1.8111248923       -4.5307677373       -1.2624322212
 H          1.2316803284       -4.3777751361       -1.8867487834
 H          0.4944555249       -4.8302002476       -0.2947589878
 H          0.0770875626       -2.1424625960       -1.7817341476
