  62
        -98.94522746
 C         -1.6084497010       -0.2307134387       -0.6042286455
 C         -2.8822490151       -0.7380261794       -0.9618891756
 C         -3.9361274463       -0.6165499206        0.0532341325
 C         -3.6343305400       -0.0846840870        1.2517168981
 C         -4.6184027314        0.1380886520        2.3626975246
 C         -5.2490315323        1.5350263103        2.2746988180
 C         -5.7804425382        1.8866187243        0.8850849654
 H         -6.2288024129        2.8802807193        0.9508106833
 H         -4.9406274759        1.9578824560        0.1902982370
 C         -6.8131959354        0.8955330903        0.3305343761
 H         -7.2220126059        0.2932265731        1.1426351406
 H         -7.6416141894        1.4593336588       -0.1034685034
 C         -6.2802000049       -0.0279264119       -0.7664767247
 H         -7.1327300355       -0.5284829888       -1.2331537387
 H         -5.7874195700        0.5676261657       -1.5389783569
 C         -5.3063566337       -1.1195560935       -0.3051221640
 H         -5.1622427499       -1.8110405142       -1.1404678703
 H         -5.7431271281       -1.6746015689        0.5276800101
 H         -6.0604436644        1.5933105805        3.0024638250
 H         -4.4923500103        2.2735703023        2.5495070333
 H         -4.0896120148        0.0463191425        3.3130765807
 H         -5.3924210165       -0.6254935130        2.3142255655
 O         -2.3930306730        0.3592985342        1.5728091781
 C         -1.3501480919        0.3070530379        0.6572296201
 O         -0.2774735205        0.7718320000        1.0853542916
 O         -3.1257852040       -1.2676311575       -2.0794673398
 C         -0.4822698453       -0.3389545305       -1.6197938944
 C          0.4884265977       -1.3918553560       -1.1433375077
 C          0.0814054850       -2.7243821336       -1.1321757540
 C          0.9310448276       -3.7166972577       -0.6845539578
 C          2.1977554484       -3.3997771419       -0.2226361673
 C          2.6105815705       -2.0742565497       -0.2217712372
 C          1.7617652275       -1.0823217558       -0.6951403302
 H          2.1003417043       -0.0620807469       -0.6994673871
 N          3.8942084036       -1.7102436864        0.2250872017
 S          4.0073201692       -0.5257337044        1.4167108046
 O          5.3345999772       -0.7104950271        1.9690380973
 O          2.9164902566       -0.6227000565        2.3576816551
 C          3.9719204070        1.0155100427        0.5288039106
 C          5.0304929448        1.2948297677       -0.3135832855
 C          5.0271719456        2.4865617236       -1.0199046057
 C          3.9726308260        3.3747505052       -0.8684611379
 C          2.9204397413        3.0797750877       -0.0150540302
 C          2.9143182548        1.8879982643        0.6941407684
 H          2.0953838249        1.6101336453        1.3403753685
 H          2.0961224197        3.7661758875        0.0993631379
 H          3.9676811358        4.3021975430       -1.4195319216
 H          5.8422712370        2.7191076927       -1.6860250248
 H          5.8317353602        0.5794272086       -0.3945824691
 H          4.4793983506       -2.4970996633        0.4706632663
 H          2.8600067543       -4.1732569365        0.1370658134
 H          0.6047423600       -4.7460173027       -0.6867245514
 H         -0.9130543675       -2.9683633733       -1.4797297916
 H         -0.9577159191       -0.7122513902       -2.5380826591
 C          0.1587426870        1.0016450466       -1.9063769142
 C          1.0302364589        1.1625843399       -3.1150489299
 C         -0.3182585435        1.8144355616       -3.0707363442
 H         -0.3708227520        2.8871403512       -2.9618221113
 H         -1.1072131554        1.3991357866       -3.6807468344
 H          1.9078162340        1.7860465112       -3.0350421433
 H          1.1563797183        0.3025208736       -3.7549409029
 H          0.4373629103        1.5391073709       -1.0084294814
