  62
        -98.94342069
 C         -2.5081125653       -1.1475200831        0.0099176607
 C         -3.4440630263       -0.5768129065        0.9145181512
 C         -4.3789876676        0.4038700849        0.3556127081
 C         -4.3340766454        0.6906552647       -0.9576423820
 C         -5.2355946897        1.6478847760       -1.6886977612
 C         -4.7904076848        3.1142914108       -1.6025357785
 C         -4.9988955107        3.7786332777       -0.2410030209
 H         -6.0303545748        3.6301923539        0.0799936269
 H         -4.8530860112        4.8513504780       -0.3827178322
 C         -4.0408516366        3.2912225466        0.8550498484
 H         -3.6403252860        4.1507998517        1.3970428755
 H         -3.1915133117        2.7792913601        0.3964023005
 C         -4.6787173348        2.3623360715        1.8882464216
 H         -5.4416374282        2.9065772451        2.4492343042
 H         -3.9027590715        2.0483718655        2.5909803841
 C         -5.3175442806        1.1003789807        1.2938310357
 H         -6.2469003460        1.3530861346        0.7838331527
 H         -5.5419058645        0.4113826138        2.1116655053
 H         -5.3632422693        3.6723269231       -2.3468123034
 H         -3.7356704294        3.1760255824       -1.8804989527
 H         -6.2538673180        1.5527312699       -1.3105695841
 H         -5.2244441703        1.3454850532       -2.7381154686
 O         -3.4436124098        0.1041605967       -1.7982824888
 C         -2.4979678477       -0.8035807108       -1.3416052009
 O         -1.7374785758       -1.2120064350       -2.2440655948
 O         -3.4984996057       -0.8830515359        2.1348330054
 C         -1.5289933930       -2.1506812107        0.5966611992
 C         -0.1806915870       -1.5225756984        0.8609728982
 C          0.3237709062       -1.4371921308        2.1533443294
 C          1.5651370469       -0.8726073807        2.3889245227
 C          2.3246031801       -0.3765648587        1.3445876083
 C          1.8288084438       -0.4549583628        0.0495313119
 C          0.5884218433       -1.0318110801       -0.1845739871
 H          0.2057803881       -1.0864202257       -1.1931864602
 N          2.5738066641        0.0742213445       -1.0178647775
 S          4.1944543305       -0.3360012463       -1.1515911764
 O          4.5214771468       -0.1466247232       -2.5478683588
 O          4.4584073561       -1.6459277480       -0.6022474692
 C          5.0283420743        0.9081383051       -0.1880371000
 C          5.9223305386        0.5334707641        0.7958123862
 C          6.5676678267        1.5196599168        1.5257991238
 C          6.3096409885        2.8555752792        1.2596359968
 C          5.4109697590        3.2152836414        0.2661558480
 C          4.7636005783        2.2344676437       -0.4680317615
 H          4.0601655262        2.4716748218       -1.2488304205
 H          5.2125546426        4.2551973384        0.0621068457
 H          6.8118490263        3.6214015675        1.8293615398
 H          7.2667107797        1.2421630737        2.2982803975
 H          6.0859733048       -0.5177306192        0.9719084252
 H          2.1056745713       -0.0028893398       -1.9094598692
 H          3.2906327873        0.0669100028        1.5223930218
 H          1.9446015224       -0.8139273699        3.3975791359
 H         -0.2697420008       -1.8077987928        2.9763307025
 H         -1.9601407398       -2.4319832287        1.5669461793
 C         -1.3793022772       -3.4066227078       -0.2399687015
 C         -0.8852669808       -4.6603792810        0.4145070494
 C         -2.3166213637       -4.5535363349       -0.0169939014
 H         -2.6442857329       -5.1239408455       -0.8731234075
 H         -3.0722192812       -4.4396945027        0.7466333725
 H         -0.2246621509       -5.3059968561       -0.1437077845
 H         -0.6705512749       -4.6212018680        1.4716712227
 H         -1.0660147568       -3.2133695735       -1.2578507261
