  62
        -98.94326260
 C         -2.5094955002       -1.0212875504       -0.1312412998
 C         -3.6532123801       -0.8649533806        0.6886173204
 C         -4.7109261801       -0.0016527604        0.1524637307
 C         -4.5551759901        0.5731833600       -1.0542265192
 C         -5.5545573701        1.4589224602       -1.7477917489
 C         -5.4971125899        2.9293456201       -1.3115018385
 C         -6.0473935898        3.2157624498        0.0861933516
 H         -6.1484361198        4.2992830997        0.1746608820
 H         -7.0461066499        2.7875581098        0.1773085316
 C         -5.1605913798        2.7079431794        1.2316632815
 H         -4.1576492299        2.5004190494        0.8513110013
 H         -5.0600949397        3.4892456991        1.9884330017
 C         -5.6904143999        1.4597031692        1.9374488611
 H         -4.9685282699        1.1665082189        2.7040271510
 H         -6.6339252098        1.6928059991        2.4359565212
 C         -5.9122157300        0.2569421095        1.0110614908
 H         -6.7950641600        0.4163769997        0.3923826209
 H         -6.0739686200       -0.6281992007        1.6312043305
 H         -4.4614874599        3.2715260101       -1.3726969484
 H         -6.0808146499        3.5055103704       -2.0331096383
 H         -6.5608321801        1.0701289103       -1.5889590689
 H         -5.3261172001        1.4076136705       -2.8145085889
 O         -3.4433603501        0.3907147901       -1.8150880893
 C         -2.3887004302       -0.3940391101       -1.3711317296
 O         -1.4292747302       -0.4564279299       -2.1630103596
 O         -3.7836444801       -1.4216772509        1.8116010502
 C         -1.3714852902       -1.8968844807        0.3628313199
 C         -0.1218084801       -1.0653591408        0.5114195501
 C         -0.1325571400       -0.0030495811        1.4125228504
 C          0.9826570801        0.7940139088        1.5804586206
 C          2.1348129900        0.5531039889        0.8513098205
 C          2.1587072499       -0.5050452908       -0.0453316698
 C          1.0374027398       -1.3106959607       -0.2056704700
 H          1.0733015197       -2.1267423905       -0.9103442503
 N          3.3199566798       -0.7482940907       -0.7968975400
 S          4.7943114099       -0.8319553510       -0.0023751501
 O          5.6341743898       -1.6503278008       -0.8496181404
 O          4.6340683499       -1.2755246014        1.3630508998
 C          5.3984979000        0.8424827290       -0.0333491796
 C          5.5222549700        1.4682316393       -1.2583424195
 C          6.0017639301        2.7675651793       -1.3003989391
 C          6.3499084102        3.4146515989       -0.1239628089
 C          6.2228593702        2.7715802486        1.0976901909
 C          5.7431005701        1.4718904586        1.1466113905
 H          5.6233089901        0.9340490983        2.0736560904
 H          6.4944618003        3.2762926783        2.0109215410
 H          6.7228926602        4.4260605489       -0.1598761687
 H          6.1019296500        3.2709915295       -2.2485356590
 H          5.2441768199        0.9302340596       -2.1493074996
 H          3.2241692097       -1.4970655305       -1.4671258902
 H          3.0075890601        1.1736906788        0.9727299006
 H          0.9567659802        1.6132350986        2.2830368008
 H         -1.0336332200        0.1874762788        1.9797101805
 H         -1.6767506602       -2.2315776209        1.3649929599
 C         -1.2058583403       -3.1123642104       -0.5240356704
 C         -0.5203263304       -4.3357272806        0.0053296892
 C         -2.0012723404       -4.3456440405       -0.2234737707
 H         -2.3922881005       -4.9207300102       -1.0493614709
 H         -2.6532997604       -4.3192001006        0.6371843393
 H          0.1055862995       -4.9084521805       -0.6626495010
 H         -0.1627751203       -4.3057434009        1.0236481692
 H         -1.0622191304       -2.8556288701       -1.5677007204
