  62
        -98.94492433
 C          2.1966729877        0.9428636868        0.5468541763
 C          2.3602767063        0.1585318214       -0.6208403377
 C          3.1753920863       -1.0531542159       -0.4627004715
 C          3.6606665022       -1.3819272465        0.7481536442
 C          4.4895965761       -2.5953046283        1.0718444583
 C          5.9879128953       -2.4204142669        0.7878932125
 C          6.3735730909       -2.4142805427       -0.6918543533
 H          7.4603976940       -2.5064587624       -0.7394879874
 H          5.9506344911       -3.2930775864       -1.1796169355
 C          5.9521272477       -1.1486187942       -1.4514513626
 H          5.7202469129       -0.3551798949       -0.7372954583
 H          6.7861608714       -0.7960773403       -2.0622937003
 C          4.7561619758       -1.3378583040       -2.3848657744
 H          4.5209903413       -0.3731404912       -2.8413662643
 H          5.0208754823       -2.0331569128       -3.1845075507
 C          3.4886127465       -1.8534886902       -1.6905619090
 H          3.5984494332       -2.9087393372       -1.4405248506
 H          2.6475632969       -1.7440774122       -2.3801461824
 H          6.3259178714       -1.4934344839        1.2567265748
 H          6.5093677787       -3.2482032634        1.2738993736
 H          4.1104795723       -3.4560722672        0.5199811827
 H          4.3611033336       -2.7836151955        2.1400442068
 O          3.4252397612       -0.6333293084        1.8593452390
 C          2.7069272339        0.5499463106        1.7832905412
 O          2.5816366544        1.1452633072        2.8737169083
 O          1.8564400375        0.4516131496       -1.7356743961
 C          1.4076691860        2.2389216155        0.4859624893
 C         -0.0135507968        1.9543261035        0.0626851240
 C         -0.6679083874        2.6436147113       -0.9490577157
 C         -1.9697351123        2.3172749490       -1.2890230617
 C         -2.6481415800        1.3116047079       -0.6260047173
 C         -2.0047963184        0.6190179953        0.3918351880
 C         -0.7009782159        0.9468449063        0.7288594349
 H         -0.1982503804        0.4041995040        1.5211695728
 N         -2.6906453582       -0.3913124107        1.0892373444
 S         -3.4818060034       -1.5780841754        0.2019629458
 O         -3.5487465886       -2.7230388709        1.0845546444
 O         -2.8564580863       -1.7915142020       -1.0824787559
 C         -5.1214344337       -0.9175453109       -0.0145657457
 C         -5.6445985176       -0.7734086820       -1.2845790282
 C         -6.9238998295       -0.2586459390       -1.4276209847
 C         -7.6532397776        0.0998818939       -0.3043421296
 C         -7.1145950216       -0.0546671764        0.9644683996
 C         -5.8369956265       -0.5697172515        1.1144692429
 H         -5.3832849213       -0.7097392667        2.0813803963
 H         -7.6848706662        0.2246666416        1.8356914551
 H         -8.6475369684        0.5018737321       -0.4184307221
 H         -7.3444267015       -0.1388680600       -2.4131226758
 H         -5.0378873493       -1.0607356676       -2.1287281385
 H         -2.1467725086       -0.8095409431        1.8303065145
 H         -3.6599209118        1.0528761203       -0.8915746909
 H         -2.4637727633        2.8556471013       -2.0833436975
 H         -0.1561465329        3.4292116433       -1.4797606338
 H          1.3822718697        2.6270618469        1.5148925552
 C          2.1178714276        3.2429582033       -0.3973445151
 C          1.9521624278        4.7118984338       -0.1533389719
 C          3.2488746738        4.0385640196        0.1791421725
 H          4.1096299120        4.2363122934       -0.4419257664
 H          3.4907670677        3.8740396652        1.2194340592
 H          1.9254429977        5.3763924597       -1.0036491648
 H          1.3150904793        5.0138198159        0.6640473417
 H          2.2191387974        2.8989642458       -1.4201366930
