  62
        -98.93994499
 C         -2.7694641002       -0.0606451024        0.4236775382
 C         -2.8248763383       -1.0256155275       -0.6164633891
 C         -2.2829694817       -2.3513409647       -0.3121558273
 C         -1.7908879082       -2.5981787362        0.9148882501
 C         -1.1396437067       -3.8761677075        1.3676984288
 C          0.3448764598       -3.9608111933        0.9837534591
 C          0.6171309827       -4.2552493444       -0.4925901388
 H          1.6667295633       -4.5455736432       -0.5711096078
 H          0.0171101831       -5.1087096486       -0.8115385709
 C          0.3658276318       -3.0634087859       -1.4272393345
 H          0.3508152074       -2.1418900002       -0.8398296487
 H          1.1941028052       -2.9760954425       -2.1350866659
 C         -0.9173208789       -3.1592067162       -2.2534584397
 H         -1.0227432383       -2.2346698175       -2.8272023797
 H         -0.8363024248       -3.9892624239       -2.9596839726
 C         -2.1958826369       -3.3486487530       -1.4278125988
 H         -2.2442557872       -4.3633914188       -1.0332811208
 H         -3.0537431491       -3.1852035797       -2.0851627803
 H          0.8271517963       -3.0184379702        1.2572122730
 H          0.7934955389       -4.7567243351        1.5833193933
 H         -1.2182903524       -3.8987402421        2.4567826642
 H         -1.6770538205       -4.7333554915        0.9604388349
 O         -1.8414866781       -1.6816165297        1.9142205887
 C         -2.2725151811       -0.3766231734        1.6888315010
 O         -2.1842875604        0.3491140002        2.6975150529
 O         -3.2976077289       -0.7749235795       -1.7585218762
 C         -3.1117964684        1.3589362518        0.0022364828
 C         -1.9664801268        1.8824888442       -0.8341948707
 C         -2.1776215264        2.6547215364       -1.9691158599
 C         -1.1040114247        3.0911351218       -2.7270137432
 C          0.1907778507        2.7461298186       -2.3858904943
 C          0.4113024853        1.9538898121       -1.2625305834
 C         -0.6635880526        1.5580532971       -0.4839382388
 H         -0.4828990843        0.9675850785        0.4013250755
 N          1.7033954800        1.5073659537       -0.9464575563
 S          2.0588877785        0.8140278424        0.5449321523
 O          1.3671481938       -0.4433348279        0.6605702837
 O          1.8544404676        1.7770488759        1.6056338741
 C          3.8006333808        0.5143307391        0.3189998019
 C          4.7205906681        1.4318073235        0.7895975397
 C          6.0703862602        1.1949831478        0.5809900866
 C          6.4745021566        0.0518100576       -0.0920215727
 C          5.5393823127       -0.8615221587       -0.5562410003
 C          4.1886239069       -0.6307494341       -0.3503747854
 H          3.4247041572       -1.3145451542       -0.6831477389
 H          5.8569485325       -1.7511865030       -1.0756339992
 H          7.5252701991       -0.1303487847       -0.2529796223
 H          6.7997621565        1.9006492902        0.9446743892
 H          4.3599998102        2.3001776607        1.3172808401
 H          2.4434378482        2.1047780096       -1.2854308865
 H          1.0242503106        3.0681365648       -2.9905775288
 H         -1.2788958295        3.6966298573       -3.6033745548
 H         -3.1873609534        2.8953561750       -2.2673945286
 H         -3.9882283156        1.2753937442       -0.6617341451
 C         -3.4838228886        2.2952893302        1.1382333381
 C         -2.5102075150        3.2561967915        1.7447714482
 C         -3.6332404137        3.7685001003        0.8964311107
 H         -4.4472166517        4.2866507219        1.3800645411
 H         -3.3845142429        4.1461475652       -0.0833588334
 H         -2.5481064461        3.3981032023        2.8138949343
 H         -1.5062594292        3.2790507872        1.3471827441
 H         -4.1913213816        1.8387300594        1.8219618486
