  62
        -98.93714424
 C          1.3953007829        1.4691897689       -0.2106595903
 C          2.7330636721        1.4439819872        0.2585026255
 C          3.5445731293        0.2526463208       -0.0572678832
 C          2.9720223349       -0.7515039666       -0.7462387851
 C          3.5693088072       -2.0780312423       -1.1338327514
 C          3.6454405649       -3.0590448626        0.0470147336
 C          4.1489744638       -2.4520008299        1.3538600613
 H          3.5015449061       -1.6198427587        1.6364048503
 H          4.0559238296       -3.2139956158        2.1323028853
 C          5.6012498467       -1.9807735905        1.3358171165
 H          5.8506040106       -1.6598313721        2.3505894605
 H          6.2490722463       -2.8245549838        1.0874247927
 C          5.9203387653       -0.8267718681        0.3826346310
 H          6.9076149112       -0.4429696485        0.6564189696
 H          6.0005880299       -1.1752411213       -0.6436431314
 C          4.9575771877        0.3538150124        0.4647562342
 H          4.8721164418        0.6746789104        1.5092914796
 H          5.4067619659        1.2058377124       -0.0604474705
 H          2.6417453846       -3.4497551481        0.2299883895
 H          4.2863106405       -3.8948094191       -0.2389860330
 H          2.9181258909       -2.5025060470       -1.9009119442
 H          4.5493743319       -1.9314845350       -1.5779041125
 O          1.6797687876       -0.6924949805       -1.1681779406
 C          0.8579441100        0.3946389212       -0.9240544855
 O         -0.2842994379        0.2671169979       -1.3995789687
 O          3.2399307539        2.3832270931        0.9297841194
 C          0.5454236997        2.6663850703        0.1856496817
 C         -0.6839689117        2.1497683611        0.8848802339
 C         -0.6301491367        1.8370807029        2.2392272108
 C         -1.7123167670        1.2533684950        2.8723513692
 C         -2.8541349907        0.9351746562        2.1577147151
 C         -2.9075222391        1.2271600653        0.8010147712
 C         -1.8447390938        1.8686110448        0.1809084827
 H         -1.9005058272        2.1007876203       -0.8707179191
 N         -4.0403038940        0.8475973020        0.0500532963
 S         -4.4252983033       -0.7843815465        0.0488128310
 O         -5.3566253059       -0.9513996594       -1.0450138705
 O         -4.9206760886       -1.1416435605        1.3561372416
 C         -2.9192473691       -1.6791169630       -0.2872676964
 C         -2.6157147276       -1.9964436955       -1.5948223189
 C         -1.4384182712       -2.6724384818       -1.8652780788
 C         -0.5819487865       -3.0066046276       -0.8293854407
 C         -0.8973754432       -2.6750556309        0.4781058644
 C         -2.0786777666       -2.0077691426        0.7565344168
 H         -2.3583504649       -1.7415954355        1.7627939547
 H         -0.2237873032       -2.9266963282        1.2827497712
 H          0.3417925078       -3.5210261745       -1.0446029532
 H         -1.1846649347       -2.9232350799       -2.8828776025
 H         -3.3063748590       -1.7154285420       -2.3737916797
 H         -3.9907655450        1.1674945706       -0.9075826144
 H         -3.6935016273        0.4442499538        2.6235345146
 H         -1.6624299062        1.0286652108        3.9271671017
 H          0.2766918065        2.0465694663        2.7895038097
 H          1.1624066429        3.2070027642        0.9206184834
 C          0.2324254140        3.6550603535       -0.9262766141
 C          1.3035375490        4.0646154176       -1.8919261038
 C          0.1217752552        3.2795174468       -2.3720432530
 H         -0.6197494010        3.7890837716       -2.9706625450
 H          0.2637724405        2.2461448681       -2.6442530311
 H          1.3830509029        5.1047803930       -2.1696813338
 H          2.2541651210        3.5567209876       -1.8164206770
 H         -0.4332768076        4.4411724366       -0.5814965526
