  62
        -98.95135462
 C         -2.3391579694       -0.0871916975        0.1119368285
 C         -1.6104768865        0.4777676579       -0.9611859081
 C         -1.4508509734        1.9363799827       -0.9291042467
 C         -1.9068678245        2.6319615423        0.1283770085
 C         -1.8249101906        4.1230935925        0.3119248639
 C         -0.4712548305        4.6084335718        0.8479572934
 C          0.6674339957        4.6133638439       -0.1724144428
 H          0.3414320295        5.1282272889       -1.0773383949
 H          1.4814093193        5.1974661075        0.2617715740
 C          1.2035497880        3.2210702235       -0.5334740593
 H          2.2968190317        3.2447485542       -0.5406572990
 H          0.9136841677        2.5018947990        0.2366154244
 C          0.7571329501        2.7018989368       -1.8994453616
 H          1.1567923779        3.3495456852       -2.6836494205
 H          1.1834096303        1.7060498547       -2.0342589260
 C         -0.7624846708        2.6033767886       -2.0835583147
 H         -1.1832300818        3.5972603246       -2.2391395327
 H         -0.9572132198        1.9991142438       -2.9733912817
 H         -0.1887696523        3.9860126861        1.7009016859
 H         -0.6107707097        5.6296289377        1.2110498499
 H         -2.0450640801        4.6236960238       -0.6317484146
 H         -2.5987018579        4.3887543139        1.0356084710
 O         -2.5371628826        2.0416843898        1.1786539057
 C         -2.7726136369        0.6776921482        1.1938287405
 O         -3.3744754595        0.2693929212        2.2099686512
 H         -0.5200401750       -0.9982681019        1.6923122838
 C         -0.3110861976       -1.8571937669        1.0712440355
 C         -1.2840988412       -2.3248215735        0.1973382289
 C         -0.9960540169       -3.4400876129       -0.5792877191
 C          0.2446430017       -4.0493407598       -0.4961812684
 C          1.2279615349       -3.5477412124        0.3373703009
 C          0.9457882116       -2.4365611327        1.1236272331
 N          1.9187213955       -1.8576242086        1.9658485620
 S          2.3587793817       -0.2755419029        1.6217167266
 O          3.4326354231        0.0242836517        2.5443548284
 O          1.2045008596        0.5822634425        1.6871533212
 C          3.0130808513       -0.3600741170       -0.0361035394
 C          2.1505462870       -0.5388497840       -1.0994007884
 C          2.6828628247       -0.6918479523       -2.3712341862
 C          4.0554585925       -0.6608736322       -2.5592529700
 C          4.9080164537       -0.4778914003       -1.4805425458
 C          4.3843904038       -0.3336324430       -0.2063279561
 H          5.0066175843       -0.1932364552        0.6628065198
 H          5.9757135348       -0.4514845328       -1.6276254743
 H          4.4610500757       -0.7794307092       -3.5515650525
 H          2.0089584049       -0.8318522134       -3.2015588415
 H          1.0837394263       -0.5510047554       -0.9395974727
 H          2.7544239911       -2.4179921187        2.0667002877
 H          2.2044391864       -4.0060971101        0.3800211540
 H          0.4551873612       -4.9153438078       -1.1048130834
 H         -1.7408398041       -3.8287252009       -1.2541702905
 C         -2.5985169390       -1.5836937686        0.1536308111
 H         -3.1253935775       -1.7719637541        1.1009996584
 C         -3.4917046450       -1.9997463864       -0.9963235710
 C         -4.4058666788       -3.1783926777       -0.8532242555
 C         -4.9701117992       -1.7904565802       -0.8744245893
 H         -5.5193127215       -1.4673171016       -1.7458988573
 H         -5.3356848887       -1.3700567322        0.0515661168
 H         -4.5730603312       -3.8096686417       -1.7128482252
 H         -4.3984440824       -3.7059335824        0.0886862621
 H         -3.0389011496       -1.8143346458       -1.9632812372
 O         -1.1276647309       -0.1990980257       -1.9071742663
