  62
        -98.94597806
 C          1.1819231680        0.9709063411       -0.4969329748
 C          2.2786988733        1.2334263281        0.3641893508
 C          3.0519184893        0.0721500721        0.8188372083
 C          2.6635027396       -1.1594374894        0.4426414986
 C          3.3773836561       -2.4309587106        0.7985631459
 C          4.4217162151       -2.8004632973       -0.2643284045
 C          5.3475212869       -1.6455496739       -0.6461727046
 H          4.7610599840       -0.8686086099       -1.1416417936
 H          6.0601815457       -2.0287305996       -1.3795859412
 C          6.1106131164       -1.0274925250        0.5336179844
 H          7.1533479757       -0.8865386294        0.2414992194
 H          6.1015374854       -1.7135894089        1.3813307462
 C          5.5858357991        0.3375921909        0.9826784246
 H          5.5048377761        1.0015074300        0.1184038845
 H          6.3189992534        0.7761404016        1.6648672024
 C          4.2349643761        0.3281313195        1.7097723395
 H          4.0783150342        1.3237613365        2.1354602541
 H          4.2619561483       -0.3931160917        2.5296243503
 H          3.8976810358       -3.1310955396       -1.1638833464
 H          5.0147195508       -3.6365030295        0.1110321857
 H          3.8559568514       -2.3112891657        1.7688365974
 H          2.6389457846       -3.2317268866        0.8677638181
 O          1.5924693602       -1.3795955268       -0.3566344230
 C          0.8251978090       -0.3315820924       -0.8486807895
 O         -0.1128370982       -0.7107383117       -1.5764563415
 H         -1.5394573182        0.4185704712       -0.2132359199
 C         -1.6690674820        1.3767919103        0.2624751094
 C         -0.7845389179        2.4090687846       -0.0138906022
 C         -0.9800854827        3.6390806088        0.6028384993
 C         -2.0278916609        3.8225812403        1.4878770878
 C         -2.8803418575        2.7774935078        1.7954021191
 C         -2.6913683911        1.5437391516        1.1832591818
 N         -3.5204816216        0.4500588629        1.4731462000
 S         -2.8399138479       -1.0806417215        1.5631003342
 O         -3.7551866302       -1.8252441394        2.4073966193
 O         -1.4710610337       -1.0316430100        2.0259361085
 C         -2.9475272871       -1.7424520301       -0.0836872804
 C         -3.9736735534       -1.3355978868       -0.9123974592
 C         -4.0789391048       -1.9034969044       -2.1714160547
 C         -3.1676398854       -2.8674710338       -2.5742174108
 C         -2.1472184433       -3.2681532133       -1.7275239259
 C         -2.0334406062       -2.7008865378       -0.4688717754
 H         -1.2410782680       -2.9696658199        0.2121671512
 H         -1.4312724847       -4.0096910733       -2.0439543493
 H         -3.2487304659       -3.3058808939       -3.5565918870
 H         -4.8682648910       -1.5898130584       -2.8357582146
 H         -4.6596910567       -0.5788259297       -0.5695986009
 H         -4.1934121605        0.6033855057        2.2103828984
 H         -3.6798969817        2.9097107215        2.5083719171
 H         -2.1698654514        4.7826325642        1.9604606819
 H         -0.2927245348        4.4473429442        0.4014933234
 C          0.3782472526        2.1786354073       -0.9502973151
 H          1.0594325561        3.0351713052       -0.8512124762
 C         -0.0998387088        2.1080257695       -2.3869261917
 C         -0.4021185399        3.3816276566       -3.1160589344
 C          0.8050691780        2.5742048549       -3.4860845984
 H          0.8015788666        2.0313750516       -4.4190770096
 H          1.7774693264        2.9527624786       -3.2057947212
 H         -0.2465755400        4.3106441559       -2.5889524043
 H         -1.2387832958        3.3968858487       -3.7970812229
 H         -0.7263066118        1.2490767410       -2.5877309941
 O          2.6015968832        2.3969581728        0.7296940591
