  62
        -98.94138835
 C         -1.6739408721       -1.1591516147        0.1674876511
 C         -1.6960997470        0.2061411398        0.5516762855
 C         -2.7991018703        1.0189167731        0.0253032621
 C         -3.6995640400        0.4450628445       -0.7933375160
 C         -4.9019631195        1.1357752860       -1.3672017104
 C         -6.1259962052        0.9697567108       -0.4560454004
 C         -5.8528061975        1.3041073689        1.0103886366
 H         -6.7932625643        1.1841803832        1.5526236447
 H         -5.1518397033        0.5723110632        1.4186842604
 C         -5.3026643502        2.7176491204        1.2466095687
 H         -5.8349162270        3.1642253486        2.0891459502
 H         -5.4971852245        3.3418565459        0.3737542844
 C         -3.8116110829        2.7690351374        1.5849297996
 H         -3.5793999528        3.7747621727        1.9455226831
 H         -3.5969660513        2.0730640559        2.3999940874
 C         -2.8512048175        2.4661434272        0.4277660110
 H         -3.0990521873        3.0960368946       -0.4292762988
 H         -1.8418147958        2.7201721932        0.7653504423
 H         -6.4631113290       -0.0677958547       -0.5136987712
 H         -6.9267170547        1.6083736453       -0.8333945021
 H         -4.6776745914        2.1920549915       -1.5022491762
 H         -5.1216463760        0.6919900395       -2.3396273775
 O         -3.6358186867       -0.8581559509       -1.1592604297
 C         -2.6259525014       -1.6976380999       -0.6995345276
 O         -2.7068341253       -2.8585090135       -1.1378617698
 H          1.9826481441       -1.2047679505        1.3550535491
 C          1.8830342787       -1.4482857549        0.3081990347
 C          0.6648759382       -1.8782187863       -0.1947592142
 C          0.5636976045       -2.1717036189       -1.5520070150
 C          1.6643302527       -2.0429017004       -2.3783202679
 C          2.8757072393       -1.5989991948       -1.8754494634
 C          2.9843917771       -1.2943905541       -0.5242730957
 N          4.2007755301       -0.8436083813        0.0165598609
 S          4.2210735444        0.5307482694        0.9761561179
 O          5.6234817930        0.8672356215        1.0882072421
 O          3.5291283641        0.2764120365        2.2122665402
 C          3.3855466856        1.7678240628        0.0002085025
 C          2.0117268545        1.8902735008        0.0524675202
 C          1.3953813475        2.8108005194       -0.7818309168
 C          2.1516269308        3.5892872641       -1.6432138648
 C          3.5318782658        3.4570284500       -1.6787460886
 C          4.1547151943        2.5343456768       -0.8553514420
 H          5.2247148182        2.4025546474       -0.8451714471
 H          4.1204317334        4.0663785966       -2.3455533878
 H          1.6620775582        4.3031501384       -2.2868539353
 H          0.3210159786        2.9039300115       -0.7473619376
 H          1.4292151344        1.2871370626        0.7314201980
 H          4.9576205032       -0.8073371119       -0.6518558292
 H          3.7313724785       -1.4898538204       -2.5243109682
 H          1.5764617703       -2.2806360792       -3.4276659531
 H         -0.3856421864       -2.5030080959       -1.9460727850
 C         -0.5292028866       -1.9912351470        0.7182032801
 H         -0.2568126862       -1.5038090495        1.6687543143
 C         -0.9088273193       -3.4279113596        1.0441692439
 C         -0.3694052440       -4.6170919432        0.3132722334
 C          0.0959293280       -4.3244796316        1.7060512124
 H         -0.2301973174       -4.9654751802        2.5110703742
 H          1.0973640824       -3.9378117915        1.8275882744
 H          0.3209846634       -4.4520900518       -0.4984355098
 H         -1.0399133648       -5.4471408811        0.1514219010
 H         -1.9332725475       -3.5076331794        1.3929362115
 O         -0.8271977668        0.7198949475        1.3072615958
