  62
        -98.94298449
 C         -0.8355746403       -1.7794660690        0.0684824103
 C         -1.7235848103       -1.2159148781        1.0162556298
 C         -2.9634352199       -0.6487453878        0.4731007193
 C         -3.1657201696       -0.6409294384       -0.8574516007
 C         -4.4085693592       -0.1688801681       -1.5636524812
 C         -4.4940516884        1.3488371518       -1.7712759620
 C         -4.7965498983        2.1601785226       -0.5114326725
 H         -5.0626760777        3.1680596926       -0.8354522830
 H         -5.6684541186        1.7400308533       -0.0092749824
 C         -3.6224680184        2.2525599525        0.4720680077
 H         -2.6971807085        1.9810987018       -0.0405570320
 H         -3.5165049780        3.2850372726        0.8096287072
 C         -3.7622106091        1.3856998232        1.7224704981
 H         -4.5983842091        1.7430959639        2.3278558478
 H         -2.8491465892        1.4871998031        2.3146572583
 C         -3.9750393998       -0.1052405268        1.4375679488
 H         -4.9833722298       -0.2738927965        1.0586078987
 H         -3.8597799102       -0.6526213064        2.3766743291
 H         -5.2914383082        1.5309480519       -2.4954024622
 H         -3.5572076282        1.6949987611       -2.2128895020
 H         -4.4050894093       -0.6510117886       -2.5436296910
 H         -5.2872894195       -0.5099723674       -1.0143481712
 O         -2.2484008797       -1.1204147193       -1.7396403403
 C         -1.0824464500       -1.7341890496       -1.3031892098
 O         -0.3695375901       -2.1877478204       -2.2178092794
 O         -1.5047257005       -1.2134173076        2.2578257099
 C          0.3769190992       -2.5430874794        0.5683105509
 C          1.6391924795       -2.1473521704       -0.1544443490
 C          2.4779478192       -3.0727462611       -0.7628305884
 C          3.6388567195       -2.6625430020       -1.3929426884
 C          4.0009622202       -1.3297446422       -1.4040978890
 C          3.1754926305       -0.3946042614       -0.7891870696
 C          1.9993685602       -0.8042952506       -0.1816446496
 H          1.3586023205       -0.0713801600        0.2902361399
 N          3.5274772112        0.9635003484       -0.7919978202
 S          3.2432897114        1.9266744392        0.5426035192
 O          4.2567363719        2.9591570287        0.4657605289
 O          3.2126600508        1.1611428898        1.7661492096
 C          1.6671110118        2.6865859898        0.2283263785
 C          0.7787297217        2.8652288608        1.2693034583
 C         -0.4000337779        3.5545563612        1.0334695377
 C         -0.6696910774        4.0473016207       -0.2338809326
 C          0.2271808127        3.8481293998       -1.2721787023
 C          1.4109979723        3.1667813093       -1.0407009917
 H          2.1356348224        3.0017742585       -1.8205115015
 H          0.0100166131        4.2264152294       -2.2582318026
 H         -1.5849141371        4.5885557211       -0.4140292931
 H         -1.1007783680        3.7036352620        1.8393176175
 H          1.0234698613        2.4593777311        2.2384484685
 H          4.4241200514        1.1645421777       -1.2106190101
 H          4.9125983804       -1.0086805029       -1.8850324189
 H          4.2748594093       -3.3921231425       -1.8709089179
 H          2.2214887487       -4.1188031810       -0.7512799179
 H          0.4901629191       -2.2590901589        1.6256302708
 C          0.0803395085       -4.0291247993        0.4985455516
 C          0.7424799478       -4.9815889191        1.4477875622
 C         -0.7136210721       -4.6627558583        1.5997006318
 H         -1.4386969324       -5.4203056381        1.3419638620
 H         -1.0194557619       -4.0265648778        2.4171373014
 H          1.0161824774       -5.9622662994        1.0887556228
 H          1.4303499579       -4.5680379191        2.1697457722
 H         -0.1170784315       -4.3666726597       -0.5136300182
