  62
        -98.93618645
 C         -1.7645953901       -1.1435985203        0.2067003499
 C         -2.2385705000       -0.0639315207       -0.5753409907
 C         -3.6982557399        0.0154016292       -0.7376156810
 C         -4.4841895400       -0.9246832606       -0.1825407809
 C         -5.9828603500       -1.0251626308       -0.2914824412
 C         -6.7904417802        0.1080635095        0.3704929982
 C         -7.1709656500        1.2509637391       -0.5787280023
 H         -7.1834382698        0.8694621587       -1.6004347022
 H         -8.1897757601        1.5713544591       -0.3514608127
 C         -6.2857273501        2.4991280691       -0.5103152126
 H         -6.5582408804        3.0818448095        0.3726259071
 H         -6.5034072400        3.1118918088       -1.3878258829
 C         -4.7790162201        2.2476355792       -0.4442780422
 H         -4.5053763103        1.9134647897        0.5594191480
 H         -4.2663934301        3.1989669792       -0.6008619824
 C         -4.2533191698        1.2106467789       -1.4559942316
 H         -5.0401269397        0.9139119686       -2.1480843217
 H         -3.4296217997        1.6374146487       -2.0322119416
 H         -7.7105665103       -0.3396238404        0.7493923282
 H         -6.2410475204        0.4926333398        1.2293853082
 H         -6.2538923397       -1.0939718512       -1.3473858412
 H         -6.2450297200       -1.9730683406        0.1828084591
 O         -3.9823919301       -1.9621558503        0.5424437097
 C         -2.6224072102       -2.0878371702        0.7699905200
 O         -2.3060519403       -3.0653996799        1.4778074205
 H          2.0489215799        0.0196552797       -0.2080579797
 C          1.5068300597        0.4912131000        0.5938528700
 C          0.3054820197       -0.0426478199        1.0342077699
 C         -0.3695979206        0.5979071105        2.0700542795
 C          0.1264537092        1.7625417707        2.6218803892
 C          1.3123178693        2.3072659206        2.1623800192
 C          2.0072418595        1.6637814102        1.1449683396
 N          3.2372505696        2.1663104401        0.7134676297
 S          4.0142475700        1.7045454596       -0.6809519199
 O          5.1283130799        2.6246192997       -0.7773882400
 O          3.1365316902        1.6634155791       -1.8266047201
 C          4.6383457300        0.0739057698       -0.3253325891
 C          4.7665047103       -0.8252304706       -1.3653093588
 C          5.2905111603       -2.0824722105       -1.1082544881
 C          5.6745101100       -2.4185541899        0.1803568021
 C          5.5417800097       -1.5039705395        1.2137343217
 C          5.0236831397       -0.2436098197        0.9619161411
 H          4.9076127295        0.4871126306        1.7446513708
 H          5.8401476795       -1.7688566691        2.2153331019
 H          6.0780651800       -3.3987354098        0.3792764526
 H          5.3946567805       -2.7943679308       -1.9116098878
 H          4.4442561205       -0.5261017610       -2.3504337589
 H          3.4954163095        3.0823367503        1.0441955394
 H          1.6963138491        3.2225880608        2.5857187590
 H         -0.4163257610        2.2551621810        3.4147433888
 H         -1.2996853807        0.1757999806        2.4265690594
 C         -0.2756866101       -1.3069671602        0.4502914103
 H         -0.1764589103       -2.1074416199        1.1985885506
 C          0.4099028102       -1.7503333206       -0.8259184094
 C          1.6242291202       -2.6263106205       -0.7680750988
 C          0.3153306003       -3.1894084508       -1.2318444189
 H          0.1935443606       -3.4232809912       -2.2788181488
 H         -0.2227720098       -3.8529009006       -0.5703753087
 H          1.9865177700       -2.9172267001        0.2062618914
 H          2.4036192204       -2.4716095908       -1.4987074687
 H          0.3545757503       -1.0022969409       -1.6097220197
 O         -1.4862444599        0.7901754892       -1.1136459208
