  62
        -98.94148163
 C         -1.7935941200       -1.0344191502        0.6750703394
 C         -2.0015607798        0.3525309598        0.9036540395
 C         -3.3653432298        0.8505843301        0.7011604596
 C         -4.3379265999       -0.0053009798        0.3396255195
 C         -5.7873144299        0.3370598305        0.1252070696
 C         -6.0983323798        0.8931432706       -1.2710452703
 C         -5.6058131496        2.3178911306       -1.5278641503
 H         -6.0775772096        2.6578175707       -2.4520055002
 H         -5.9528144695        2.9708446806       -0.7263981802
 C         -4.0830062396        2.4441557803       -1.6757603403
 H         -3.6522500397        1.4586532703       -1.8681135304
 H         -3.8524847395        3.0676664503       -2.5425281803
 C         -3.3772911994        3.0654043901       -0.4702175203
 H         -3.7034375793        4.1006989102       -0.3485396002
 H         -2.3025434094        3.0702557700       -0.6685515103
 C         -3.6111706995        2.3215494201        0.8511174397
 H         -2.9022447494        2.7027261399        1.5899451497
 H         -4.6239040395        2.5025798902        1.2108676297
 H         -7.1839780698        0.8792710608       -1.3924772403
 H         -5.6720889199        0.2197446106       -2.0183054104
 H         -6.1106251597        1.0515022605        0.8828688697
 H         -6.3485483800       -0.5901885294        0.2593798096
 O         -4.1045723501       -1.3278901298        0.1419127995
 C         -2.8341517202       -1.8731092400        0.2752756894
 O         -2.7946233304       -3.0924904000        0.0162246893
 O         -1.0864487697        1.1357006497        1.2722588595
 C         -0.3785144601       -1.5427074404        0.8832595593
 C          0.3894701498       -1.6314852905       -0.4140274707
 C         -0.0130380304       -2.4713540303       -1.4470363608
 C          0.7316213196       -2.5512769004       -2.6093971408
 C          1.8963173497       -1.8176247406       -2.7556163408
 C          2.3066931799       -0.9757250707       -1.7291371508
 C          1.5433570199       -0.8788749006       -0.5741740807
 H          1.8574312801       -0.2115671707        0.2135653093
 N          3.4744316300       -0.2100643309       -1.8457584207
 S          4.4548590801        0.0340337989       -0.5110482608
 O          5.7479787001        0.3644402587       -1.0710143208
 O          4.4214946599       -1.0964092411        0.3869901692
 C          3.7817946203        1.4785895490        0.2806063493
 C          3.5633833805        2.6058598290       -0.4859670506
 C          3.0552982507        3.7408731991        0.1244821595
 C          2.7785833307        3.7308426091        1.4832116195
 C          3.0079048206        2.5925857790        2.2399027094
 C          3.5153862404        1.4539696989        1.6349089294
 H          3.7014187803        0.5447089789        2.1853127093
 H          2.7887919906        2.5852993289        3.2956825294
 H          2.3792552909        4.6141123691        1.9561817996
 H          2.8739002908        4.6287546692       -0.4596617704
 H          3.7917953104        2.5763213991       -1.5383392006
 H          4.0101815599       -0.3703325309       -2.6861424708
 H          2.4833550797       -1.8947732606       -3.6583106208
 H          0.4087678895       -3.2032450803       -3.4072517108
 H         -0.9139359504       -3.0539433402       -1.3300493508
 H          0.1108865200       -0.7746530405        1.4980312593
 C         -0.2955201603       -2.8655835305        1.6214008592
 C          1.0280170496       -3.2885794507        2.1832320592
 C         -0.0783502303       -2.8691514906        3.1031752092
 H         -0.5721341904       -3.6260070905        3.6940571492
 H          0.0053961199       -1.9132441206        3.5993439693
 H          1.2927513495       -4.3341453108        2.1415322391
 H          1.8679494297       -2.6226153708        2.0464749792
 H         -0.9349373304       -3.6333183903        1.2060415092
