  62
        -98.93866958
 C         -1.6949015325       -1.1023424844       -0.2413853507
 C         -3.0365440063       -1.3412888154        0.1393253702
 C         -4.0104301826       -0.3152706007       -0.2563156981
 C         -3.5982630979        0.7589597527       -0.9534878102
 C         -4.4626167443        1.8705663397       -1.4875723544
 C         -5.1589567818        2.7585449267       -0.4381609499
 C         -6.5858145133        2.3203914541       -0.0856789659
 H         -7.2103558823        3.2098921591        0.0193963550
 H         -6.9940349885        1.7487907355       -0.9201241835
 C         -6.7362233825        1.5143517043        1.2080653317
 H         -6.6864421343        2.1955584938        2.0606612475
 H         -7.7305156768        1.0625099320        1.2067763985
 C         -5.6948636343        0.4187126201        1.4369466635
 H         -6.0270464468       -0.1975815217        2.2747815703
 H         -4.7482288145        0.8705932527        1.7427409576
 C         -5.4262974581       -0.4802758812        0.2142097392
 H         -6.1268001870       -0.2574228954       -0.5892098205
 H         -5.5426869774       -1.5300461609        0.4910300481
 H         -5.2066618160        3.7645620131       -0.8579512247
 H         -4.5435385407        2.8120751795        0.4594352841
 H         -3.7974283431        2.4895513321       -2.0930270847
 H         -5.2142342407        1.4398685850       -2.1530860007
 O         -2.2966599512        0.9469380507       -1.3053653168
 C         -1.3139537339        0.0355181062       -0.9507056480
 O         -0.1673055753        0.3485799337       -1.3217266070
 O         -3.4031423720       -2.3643464326        0.7774375592
 C         -0.6317614354       -2.1192074984        0.1324591622
 C          0.4339471847       -1.4661117586        0.9763886486
 C          0.0508094052       -0.8086287308        2.1439723989
 C          0.9872732673       -0.1946416550        2.9516622050
 C          2.3284133061       -0.2148866407        2.6077755539
 C          2.7220405230       -0.8706467510        1.4489484572
 C          1.7791127109       -1.5005495357        0.6461520898
 H          2.1176004113       -1.9950888263       -0.2482502905
 N          4.0806923303       -0.9300924940        1.0811180378
 S          4.5517173824       -0.3112188198       -0.4031787985
 O          3.8910704932       -1.0228619574       -1.4648696203
 O          5.9970108063       -0.3847499659       -0.3869622591
 C          4.0466772069        1.3988928429       -0.3502933543
 C          4.9845576569        2.3467820006        0.0137216082
 C          4.5940963409        3.6704832377        0.1286841216
 C          3.2738069188        4.0216273129       -0.1109517497
 C          2.3457042018        3.0572296663       -0.4706195756
 C          2.7287180602        1.7297227759       -0.5927475715
 H          2.0146635808        0.9718013916       -0.8749470373
 H          1.3162856259        3.3184169453       -0.6592966477
 H          2.9657746012        5.0513227058       -0.0185232741
 H          5.3159200804        4.4217689691        0.4060879329
 H          5.9998200698        2.0276597780        0.1864056212
 H          4.7067160354       -0.5811796203        1.7941409117
 H          3.0633074349        0.2685084965        3.2336655302
 H          0.6729035213        0.3090885572        3.8531960173
 H         -0.9980593702       -0.7880088101        2.4075249995
 H         -1.1491159871       -2.8668391735        0.7521271283
 C         -0.0947050697       -2.8057129087       -1.1051692121
 C          0.4720738671       -4.1895099448       -1.0086130758
 C         -0.8497240206       -3.9657654823       -1.6782126938
 H         -0.9089001477       -4.0627715425       -2.7519678034
 H         -1.7453633082       -4.2781622214       -1.1611506737
 H          1.3251908144       -4.4385408950       -1.6218256036
 H          0.4752842531       -4.6611068608       -0.0374795063
 H          0.3655118812       -2.1162756925       -1.8050847939
