  62
        -98.94049005
 C          1.2971959941        1.5843936485       -0.0043506516
 C          2.2523073609        1.1261397483        0.9292808372
 C          3.1448448291        0.0381479876        0.4859580674
 C          2.9770880546       -0.4730655401       -0.7480537474
 C          3.7885244017       -1.5586976911       -1.4028680621
 C          3.4425943998       -2.9762372899       -0.9061950410
 C          3.0454575032       -3.0693593841        0.5659966103
 H          2.2672378255       -2.3326799142        0.7752791601
 H          2.6112755478       -4.0577418344        0.7384279739
 C          4.1975923121       -2.8954335013        1.5533764088
 H          3.7815238095       -2.9294996549        2.5636490998
 H          4.8833158619       -3.7399452400        1.4486783701
 C          5.0077782616       -1.6095059325        1.4041448710
 H          5.7316983373       -1.5822567882        2.2242739514
 H          5.5831820718       -1.6300872133        0.4827057833
 C          4.1984096809       -0.3191682910        1.5057328701
 H          3.6865282938       -0.2969910103        2.4746205946
 H          4.8985467749        0.5256215107        1.5284250386
 H          4.2953643409       -3.6301010934       -1.0945518198
 H          2.6029969488       -3.3413943139       -1.4992176147
 H          3.5803425175       -1.5032479972       -2.4731462486
 H          4.8448099955       -1.3416276788       -1.2638409740
 O          1.9895369255       -0.0518964297       -1.5866328829
 C          1.1423068441        0.9908814068       -1.2569832325
 O          0.3175807689        1.2883285547       -2.1389550254
 H         -0.6895904912        0.6674944269        1.5542338670
 C         -1.4328746572        1.2248580379        0.9968647182
 C         -1.0405299012        2.3646155123        0.3039852076
 C         -2.0035826148        3.0714916488       -0.4028300693
 C         -3.3188076880        2.6381020621       -0.4241220711
 C         -3.7040328057        1.5026248904        0.2637088864
 C         -2.7491509554        0.7923655301        0.9809655432
 N         -3.1346285331       -0.3688328768        1.6871611698
 S         -3.6812862976       -1.6557401343        0.7634731834
 O         -4.8967770267       -1.2671427581        0.0963375858
 O         -3.7801105385       -2.7708224392        1.6774405785
 C         -2.3865614836       -1.9518928069       -0.4247859211
 C         -1.4323915733       -2.9073525612       -0.1380907470
 C         -0.3912172605       -3.1018103791       -1.0302693382
 C         -0.3137042846       -2.3294831376       -2.1789946646
 C         -1.2764911440       -1.3699957973       -2.4501129523
 C         -2.3254678488       -1.1770049068       -1.5657436683
 H         -3.0911773844       -0.4405410116       -1.7470932077
 H         -1.2012610240       -0.7562546099       -3.3326680767
 H          0.5038502266       -2.4675735401       -2.8690798306
 H          0.3558367033       -3.8511306347       -0.8226763396
 H         -1.5302245895       -3.4860546793        0.7666496336
 H         -2.4180468847       -0.7014796271        2.3175701009
 H         -4.7202464759        1.1438706353        0.2444087499
 H         -4.0549403572        3.1945837978       -0.9842045331
 H         -1.7254424826        3.9595118115       -0.9456575690
 C          0.4125146292        2.7623516044        0.3614433682
 H          0.6597056022        3.0004617496        1.4068014682
 C          0.7537020538        3.9578087781       -0.5032120142
 C          0.5248338085        5.3481788453        0.0070563231
 C          1.9201292670        4.8171440489       -0.1214030882
 H          2.5524505681        5.2068312735       -0.9050293720
 H          2.4550588498        4.5556266602        0.7800771296
 H          0.2007532704        6.1071557836       -0.6888633227
 H          0.1129369995        5.4550698820        0.9991351895
 H          0.6002880466        3.7661520546       -1.5592359868
 O          2.3647377714        1.6094225669        2.0900077996
