  62
        -98.94339239
 C          1.1165555826        1.2946283773       -0.1363726020
 C          1.9138217358        0.8658836322        0.9572921467
 C          2.8078041722       -0.2714425859        0.7099805711
 C          2.7958764056       -0.8617807936       -0.4985748498
 C          3.7021785427       -1.9830859523       -0.9154425045
 C          4.9897693838       -1.4443670161       -1.5550192679
 C          5.6790048097       -0.3551130880       -0.7329219722
 H          6.5921924543       -0.0763567817       -1.2632996673
 H          5.0403516196        0.5308345718       -0.7071198225
 C          6.0284554087       -0.7682271748        0.7037978745
 H          6.0141617078       -1.8551939864        0.7912416248
 H          7.0463610322       -0.4398376008        0.9243608633
 C          5.1227353474       -0.1605476581        1.7767658749
 H          5.5846912955       -0.3382490704        2.7515679042
 H          5.0641681708        0.9217099125        1.6360531771
 C          3.6944069562       -0.7167092036        1.8385496212
 H          3.7289262626       -1.8063739357        1.8983722093
 H          3.2305892227       -0.3356270218        2.7528988255
 H          5.6770199655       -2.2792333802       -1.7036789885
 H          4.7434301601       -1.0289877395       -2.5349303895
 H          3.9489401904       -2.5908519490       -0.0470041367
 H          3.1761570499       -2.5992704562       -1.6460620752
 O          1.9785203181       -0.4638376188       -1.5030246258
 C          1.1275167775        0.6233880393       -1.3595687319
 O          0.4558670831        0.8640331466       -2.3810691575
 O          1.8865843773        1.4228053980        2.0866102987
 C          0.2461514421        2.5184899593        0.0992957438
 C         -1.1500517069        2.1092647210        0.4875877041
 C         -1.7194995516        2.5246405853        1.6848635876
 C         -2.9906105290        2.1080513285        2.0449506897
 C         -3.7178015839        1.2680150169        1.2201388533
 C         -3.1534115778        0.8459737454        0.0235987422
 C         -1.8830685302        1.2659574481       -0.3373724455
 H         -1.4493603961        0.9306203664       -1.2681216122
 N         -3.8703288826       -0.0497514959       -0.8073708511
 S         -3.9427732094       -1.6132844880       -0.2096547441
 O         -4.4937819702       -2.4223871779       -1.2719219925
 O         -4.6793919151       -1.5934444450        1.0280036739
 C         -2.2483518927       -2.0807290115        0.0999765614
 C         -1.5760356929       -2.8230897815       -0.8495169497
 C         -0.2531735004       -3.1644327693       -0.6204486559
 C          0.3759461848       -2.7435346889        0.5404536793
 C         -0.3051954142       -1.9777127360        1.4736008014
 C         -1.6324417911       -1.6453754291        1.2568985834
 H         -2.1955610771       -1.0659919601        1.9704186991
 H          0.1956126256       -1.6325485178        2.3643599423
 H          1.4045619798       -3.0111006925        0.7209321553
 H          0.2833390493       -3.7529603732       -1.3473300982
 H         -2.1033853539       -3.1313428586       -1.7382566015
 H         -3.4948154110       -0.0849013901       -1.7461094251
 H         -4.6979116663        0.9131095870        1.4938066897
 H         -3.4183137812        2.4378267508        2.9794590820
 H         -1.1525300136        3.1649432638        2.3446027931
 H          0.6988112550        3.0142338837        0.9721816554
 C          0.2871678364        3.5089029707       -1.0575876561
 C         -0.8992988625        3.8624838883       -1.8992570476
 C         -0.3646530693        4.8524145993       -0.9112250209
 H          0.1548846347        5.7253922352       -1.2760418663
 H         -0.9455316256        5.0244629219       -0.0174115298
 H         -0.7303255554        4.0326181339       -2.9518157815
 H         -1.8449308587        3.3903040132       -1.6843619583
 H          1.2429632215        3.4893559926       -1.5717501029
