  62
        -98.94276114
 C         -1.2209938791       -1.6209486455       -0.3238310794
 C         -0.0599915029       -1.6899758236       -1.1243628447
 C          1.1237896711       -2.3294164980       -0.5244078829
 C          1.0683156658       -2.7433429521        0.7552013988
 C          2.0930592380       -3.4350688842        1.6307947074
 C          3.5327996617       -3.6084946867        1.1575857196
 C          4.3436139423       -2.3132844011        1.1132673720
 H          4.5410782238       -1.9959887695        2.1405591178
 H          5.3047195286       -2.5250482622        0.6393543295
 C          3.6839862465       -1.1386468970        0.3940255396
 H          2.7557429609       -0.8608873465        0.9006143629
 H          4.3601921026       -0.2825026150        0.4794544881
 C          3.3992579944       -1.3579299696       -1.0899182786
 H          4.3237161310       -1.6282541674       -1.6046202078
 H          3.0467421220       -0.4081696850       -1.5006142814
 C          2.3355748936       -2.4195295080       -1.4083316964
 H          2.7575400115       -3.4213433973       -1.3794087582
 H          1.9802006015       -2.2412022814       -2.4276740863
 H          3.5529979300       -4.1109432366        0.1950316075
 H          4.0195265782       -4.2761600084        1.8737810210
 H          2.0902733676       -2.8873425296        2.5792247791
 H          1.6744681841       -4.4245335940        1.8462876957
 O         -0.0654256574       -2.6149912190        1.5054634754
 C         -1.2212803270       -2.0458672538        1.0030486526
 O         -2.1626177352       -1.9889962591        1.8184134645
 O         -0.0128073795       -1.2415301884       -2.3028249074
 C         -2.4690664593       -0.9581750129       -0.8803299685
 C         -2.7710534623        0.2677055431       -0.0548457311
 C         -4.0212542990        0.5671142359        0.4682837260
 C         -4.1905555331        1.6812220882        1.2733338811
 C         -3.1242946601        2.5054964467        1.5809260276
 C         -1.8721942690        2.2236589159        1.0439309228
 C         -1.7144997789        1.1307807290        0.2098701064
 H         -0.7400375672        0.9089133619       -0.2005188790
 N         -0.7701468693        3.0491189898        1.3082166305
 S          0.7956525726        2.4733871971        1.2553271502
 O          0.8941070513        1.0872519124        1.6531520297
 O          1.5514597732        3.4088691916        2.0637354131
 C          1.3076824570        2.6694179649       -0.4410175126
 C          2.5972019409        2.2782298444       -0.7431281724
 C          3.0651157060        2.4309810712       -2.0381702509
 C          2.2366279286        2.9724669718       -3.0087309493
 C          0.9470443264        3.3656973654       -2.6893222325
 C          0.4743166523        3.2181702926       -1.3939391028
 H         -0.5263407702        3.5135564068       -1.1253946162
 H          0.3032968147        3.7859149772       -3.4453234991
 H          2.5983260559        3.0868567919       -4.0183507037
 H          4.0695724984        2.1253830859       -2.2845210841
 H          3.2048251462        1.8594906826        0.0432769382
 H         -0.9023863694        3.7458826700        2.0252471062
 H         -3.2525169636        3.3557758455        2.2330750417
 H         -5.1648082102        1.8995347161        1.6837395288
 H         -4.8584921960       -0.0794275457        0.2632266799
 H         -2.2023786713       -0.6368354838       -1.8980831004
 C         -3.6174202470       -1.9404721840       -0.9589931113
 C         -4.7022562194       -1.7517626846       -1.9760936864
 C         -3.7063811425       -2.8591224284       -2.1394460780
 H         -4.0306527457       -3.8760225003       -1.9772252214
 H         -2.9482335210       -2.7595489071       -2.9023748584
 H         -5.7143691835       -2.0109493413       -1.7043992206
 H         -4.6254004723       -0.9010219815       -2.6358399395
 H         -3.8854480623       -2.3440392194        0.0110220832
