  62
        -98.94046520
 C         -2.5348707121       -1.2668178599        0.1199480909
 C         -3.4054350196       -0.6298449985        1.0438099077
 C         -4.3736573675        0.3173887637        0.4830550253
 C         -4.4149401410        0.5159478828       -0.8464864490
 C         -5.3618481095        1.4277237588       -1.5784296626
 C         -4.9089692807        2.8936799602       -1.6209200730
 C         -5.0230076701        3.6489716756       -0.2960640948
 H         -4.8829656851        4.7085596469       -0.5190414703
 H         -6.0311401960        3.5307000407        0.1021966314
 C         -3.9955445585        3.2280623121        0.7641406869
 H         -3.1806463164        2.6797634250        0.2854227397
 H         -3.5564458348        4.1185682305        1.2193929130
 C         -4.5661682025        2.3749608854        1.8972380009
 H         -5.2886349351        2.9612526453        2.4691908853
 H         -3.7462495238        2.1029446968        2.5667923728
 C         -5.2465681891        1.0806970338        1.4325326398
 H         -5.4171675313        0.4489232313        2.3075369220
 H         -6.2072214349        1.3051159279        0.9694561213
 H         -5.5299728118        3.4045497003       -2.3604359922
 H         -3.8754873119        2.9298964611       -1.9734955936
 H         -6.3525565140        1.3645755056       -1.1274427212
 H         -5.4217575281        1.0557129844       -2.6035861204
 O         -3.5817605446       -0.1289606833       -1.7035776668
 C         -2.6069108766       -1.0115006452       -1.2497127194
 O         -1.9007846535       -1.4779072832       -2.1646811023
 O         -3.3777110157       -0.8539749438        2.2828236546
 C         -1.5282105456       -2.2423742535        0.7035035707
 C         -0.1975046437       -1.5822843587        0.9606359377
 C          0.4446078485       -1.7190948951        2.1855159505
 C          1.6782668095       -1.1302789288        2.4034620392
 C          2.2945035798       -0.3940860054        1.4076501626
 C          1.6610190014       -0.2505959026        0.1799934628
 C          0.4245387282       -0.8414821616       -0.0350763934
 H         -0.0574779861       -0.7383911766       -0.9967227066
 N          2.2789659110        0.5003971424       -0.8385126409
 S          3.8262541727        0.0224155096       -1.2969072078
 O          3.9815850173        0.4785435478       -2.6605783826
 O          4.0295989663       -1.3885157469       -1.0615379881
 C          4.8963577073        0.9778530297       -0.2421360480
 C          5.7969830677        0.3395350148        0.5879158312
 C          6.6238112551        1.1061729436        1.3945650504
 C          6.5361550862        2.4893600355        1.3563460510
 C          5.6284502905        3.1150000494        0.5145022409
 C          4.8000200847        2.3546533016       -0.2952393843
 H          4.0850355505        2.8001013696       -0.9667466291
 H          5.5635685177        4.1908198081        0.4868098072
 H          7.1795665476        3.0837177089        1.9856962189
 H          7.3309540518        0.6218637400        2.0486297136
 H          5.8258711167       -0.7384078800        0.5869342078
 H          1.6963795022        0.6039745881       -1.6578466594
 H          3.2546035893        0.0674471909        1.5709191129
 H          2.1651344915       -1.2444088485        3.3597717428
 H         -0.0342468786       -2.2843539915        2.9715976274
 H         -1.9507431491       -2.5215008720        1.6817892113
 C         -1.3973089578       -3.5220129894       -0.1127868569
 C         -0.1790589660       -3.8899696742       -0.9006650219
 C         -0.5033823512       -4.6297878856        0.3605051873
 H         -0.8565164807       -5.6472773982        0.2901334370
 H          0.1165810232       -4.4334426016        1.2222149158
 H         -0.3290551497       -4.3822597599       -1.8497110539
 H          0.6652133982       -3.2173502569       -0.8967075449
 H         -2.3476202143       -3.8188233871       -0.5458546479
