  62
        -98.94701968
 C         -1.5139911830       -1.0808543558        0.0745494407
 C         -2.5192517226       -0.6114650540        0.9500269034
 C         -3.0746043605        0.7116370225        0.6403305781
 C         -2.5749908850        1.4074764893       -0.3979530945
 C         -3.0733158888        2.7498727326       -0.8475818103
 C         -4.1769845956        2.6104704906       -1.9055361729
 C         -5.2836486549        1.6304441593       -1.5159015165
 H         -6.0210430149        1.6355090722       -2.3213039514
 H         -4.8651953175        0.6226359575       -1.4676282561
 C         -5.9773266503        1.9541060717       -0.1854167981
 H         -5.7804478758        2.9901208954        0.0925278025
 H         -7.0563515866        1.8530753518       -0.3189226774
 C         -5.5849132074        1.0363605736        0.9738432823
 H         -6.2838760969        1.2094266928        1.7964503855
 H         -5.6916411287       -0.0071337940        0.6671859355
 C         -4.1686963882        1.2311062255        1.5307043751
 H         -4.0052807315        2.2852791922        1.7658909055
 H         -4.0949379078        0.6584561212        2.4603171211
 H         -3.7218311348        2.2626749276       -2.8356268125
 H         -4.6077027887        3.5970714619       -2.0856061457
 H         -3.4469443238        3.2991631445        0.0146664270
 H         -2.2320166170        3.2984860150       -1.2750914602
 O         -1.5818494775        0.9410818107       -1.1939511233
 C         -1.0153392995       -0.3015219343       -0.9704298146
 O         -0.1006806738       -0.6009473418       -1.7616290677
 H          0.3048147154       -0.6081730384        1.8441980224
 C          1.0373546993       -1.2153531904        1.3257862425
 C          0.6078139353       -2.2528497100        0.5066004577
 C          1.5667644392       -3.0197325124       -0.1420627680
 C          2.9133194011       -2.7245857375       -0.0098616764
 C          3.3294827523       -1.6477772413        0.7518645257
 C          2.3784355168       -0.8943099806        1.4258205835
 N          2.8009776816        0.2726044459        2.1317272448
 S          2.5356551486        1.6421052353        1.1721794456
 O          3.0475774440        2.7603547582        1.9374996431
 O          1.1453002411        1.7527751041        0.7811610048
 C          3.5778791506        1.3232028680       -0.2297737063
 C          4.9101751209        1.6797802459       -0.1459259012
 C          5.7494284612        1.3879406926       -1.2085255543
 C          5.2443343666        0.7418145090       -2.3272658949
 C          3.9047810098        0.3911068958       -2.3937471767
 C          3.0564594385        0.6815071407       -1.3357802694
 H          2.0101390146        0.4146996736       -1.3608835993
 H          3.5071459678       -0.1134040729       -3.2596777164
 H          5.8976337817        0.5097506339       -3.1536016713
 H          6.7912854323        1.6608108704       -1.1604686938
 H          5.2523602182        2.1817885186        0.7440893928
 H          2.2938692358        0.4056571954        2.9978170729
 H          4.3702911718       -1.3790439486        0.8292150576
 H          3.6445374741       -3.3244076801       -0.5289337506
 H          1.2568967375       -3.8388800708       -0.7701703973
 C         -0.8784664255       -2.4368898458        0.3320312111
 H         -1.3074003937       -2.7894464715        1.2819335943
 C         -1.2446416285       -3.4131340712       -0.7658691579
 C         -1.3182806143       -4.8825379407       -0.4791137820
 C         -2.5750741053       -4.0999885082       -0.7094356637
 H         -3.1175059145       -4.2495733821       -1.6308560042
 H         -3.2082712639       -3.8824608502        0.1384606933
 H         -1.0005535706       -5.5737870608       -1.2448462452
 H         -1.1020599842       -5.2068699120        0.5274501782
 H         -0.8865356807       -3.0951665508       -1.7387220976
 O         -2.9259967196       -1.2662495920        1.9503375769
