  62
        -98.93476566
 C         -2.5720480321       -0.0856592954       -0.1212125581
 C         -2.3108190854       -1.1944441397       -0.9623937946
 C         -1.7651220990       -2.4033326622       -0.3262131989
 C         -1.5528526729       -2.4074176693        1.0006945012
 C         -1.0632957091       -3.5323749114        1.8793773620
 C          0.0850602913       -4.4028985979        1.3566032475
 C          1.1459357081       -3.6531408448        0.5376930541
 H          1.0154858248       -2.5736326320        0.6400033832
 H          2.1351750416       -3.8966556931        0.9310818291
 C          1.1294418729       -4.0262181299       -0.9463819706
 H          2.0906293319       -3.7479202853       -1.3860082698
 H          1.0228584723       -5.1099539381       -1.0392924362
 C          0.0448847825       -3.3430924684       -1.7772617782
 H          0.1016079203       -3.7356409198       -2.7961192357
 H          0.2571198588       -2.2703161234       -1.8367683965
 C         -1.3936598722       -3.5192738630       -1.2595585539
 H         -1.5290689791       -4.4952040236       -0.7992778350
 H         -2.0730150212       -3.4382956853       -2.1127184701
 H         -0.3171795159       -5.2185214455        0.7569793769
 H          0.5551635108       -4.8567197221        2.2309742683
 H         -0.7567451904       -3.0478380119        2.8095899646
 H         -1.9186967120       -4.1735479317        2.1144844445
 O         -1.8270910258       -1.3227995678        1.7768200339
 C         -2.2613217400       -0.1224665258        1.2388531634
 O         -2.3451338366        0.7991906558        2.0726237100
 O         -2.5231924960       -1.1734808614       -2.2068535243
 C         -2.9631419145        1.2232411524       -0.7878669114
 C         -1.9303201222        2.2629050910       -0.4262051050
 C         -2.2124142988        3.5475367496        0.0128597066
 C         -1.1799381595        4.4153465548        0.3344497738
 C          0.1409750091        4.0170536573        0.2569484542
 C          0.4323497726        2.7250134291       -0.1730372644
 C         -0.5977999160        1.8843513860       -0.5473258667
 H         -0.3620803821        0.8954400097       -0.9144850806
 N          1.7570273864        2.2477914163       -0.1796474473
 S          2.0812051180        0.6243842078       -0.4368845108
 O          1.8997609672        0.2631121740       -1.8286988933
 O          1.3514912712       -0.1485396468        0.5346859901
 C          3.8201029236        0.6076664967       -0.0457855497
 C          4.7517546111        0.6603597735       -1.0648616068
 C          6.0996931026        0.6799719745       -0.7420010415
 C          6.4910819346        0.6486594479        0.5878044437
 C          5.5446199951        0.5927476786        1.6003502374
 C          4.1957790978        0.5725518338        1.2834993788
 H          3.4235988592        0.5208062589        2.0338037480
 H          5.8519078168        0.5645824825        2.6333349558
 H          7.5402351637        0.6646535819        0.8372260480
 H          6.8374152370        0.7193188535       -1.5271485070
 H          4.4002713083        0.6730053728       -2.0840457494
 H          2.4458127630        2.8751033021       -0.5656592425
 H          0.9399179919        4.6855308020        0.5360786282
 H         -1.4123780754        5.4146018360        0.6704718402
 H         -3.2362668353        3.8665872042        0.1205898039
 H         -2.8541511083        1.0112905504       -1.8663994325
 C         -4.4003315886        1.6740440700       -0.5858681233
 C         -5.4664473727        0.7018283392       -0.1798648505
 C         -5.0367372055        1.7805350216        0.7662985591
 H         -5.7161702961        2.6011005488        0.9458125091
 H         -4.4376057555        1.5079270274        1.6199544966
 H         -6.4367038884        0.7774017696       -0.6476810294
 H         -5.1590921797       -0.3122886410        0.0325883212
 H         -4.6930909324        2.4220028849       -1.3169042391
