  62
        -98.93182093
 C         -2.5918326333       -1.2404584540       -0.2524780852
 C         -2.3770962152       -0.0279939701       -0.9504419539
 C         -3.3625419226        1.0407293478       -0.7126890959
 C         -4.3909849886        0.8205856524        0.1250905052
 C         -5.4201293654        1.8355945555        0.5337336203
 C         -4.8251153536        2.7921764470        1.5870071921
 C         -4.6870130840        4.2408143421        1.1178385429
 H         -5.6721770994        4.7118728515        1.1267758842
 H         -4.0658986254        4.7626827851        1.8489255687
 C         -4.0868596626        4.4376747934       -0.2776268912
 H         -3.8085505017        5.4906355284       -0.3578069692
 H         -4.8523783563        4.2602446641       -1.0344565792
 C         -2.8602518793        3.5778919677       -0.6090037361
 H         -2.1612663105        4.1911090637       -1.1813825182
 H         -2.3443658179        3.2753402532        0.3026618581
 C         -3.1642864885        2.3306898383       -1.4604306258
 H         -4.0351743758        2.5229873587       -2.0928823920
 H         -2.3132952595        2.1435948904       -2.1216883348
 H         -5.4492778993        2.7810514093        2.4817904548
 H         -3.8463323891        2.4087552597        1.8833802710
 H         -6.2660308006        1.2894192441        0.9516238991
 H         -5.7591427321        2.3890565384       -0.3391241739
 O         -4.5703993880       -0.3596099473        0.7722368889
 C         -3.6856915665       -1.4082253683        0.6036958104
 O         -3.9780786269       -2.4304245918        1.2556201318
 O         -1.4171234991        0.1804134134       -1.7414249235
 C         -1.6739472449       -2.4485018244       -0.3714654593
 C         -0.4239344540       -2.2655023597        0.4571810084
 C         -0.1856702140       -3.0666146192        1.5676500239
 C          0.9617148594       -2.8990822726        2.3232831485
 C          1.8903390959       -1.9279569296        1.9939023589
 C          1.6602194580       -1.1203336680        0.8874234256
 C          0.5141928356       -1.2986913341        0.1246675676
 H          0.3317533409       -0.6605790085       -0.7275353178
 N          2.5725246477       -0.0949646526        0.5538583301
 S          4.1833807682       -0.5307870588        0.2943048168
 O          4.2887638046       -1.4264581554       -0.8382417759
 O          4.7350734784       -1.0161329747        1.5335576168
 C          4.8907041352        1.0548185295       -0.1027745554
 C          5.1488841036        1.3789593298       -1.4204224694
 C          5.6777662976        2.6266631586       -1.7123282663
 C          5.9340963611        3.5244475990       -0.6872613729
 C          5.6687466619        3.1843026353        0.6311189441
 C          5.1416570311        1.9382170902        0.9296440135
 H          4.9274907896        1.6278708075        1.9388583163
 H          5.8709935141        3.8849495411        1.4251377801
 H          6.3452123478        4.4947333958       -0.9172566704
 H          5.8869053439        2.8929858709       -2.7359678671
 H          4.9401892527        0.6475518540       -2.1848132374
 H          2.2446435793        0.4218446087       -0.2530274605
 H          2.7900847893       -1.7947319416        2.5716383809
 H          1.1342760162       -3.5296339462        3.1826331422
 H         -0.9130831746       -3.8171301547        1.8424023699
 H         -2.2373223968       -3.2871049773        0.0589373191
 C         -1.3324784358       -2.7936185890       -1.8084218241
 C         -0.8749708050       -4.1827639721       -2.1313546316
 C         -2.2293001552       -3.7171738625       -2.5736527142
 H         -2.3932477734       -3.5236113111       -3.6230743112
 H         -3.0958851005       -4.1101020272       -2.0616883516
 H         -0.1041670090       -4.3109090317       -2.8759119704
 H         -0.8232726204       -4.8934426322       -1.3201988025
 H         -0.8821050844       -1.9760493004       -2.3551319053
