  62
        -98.94173362
 C          2.2562738254        0.7446683552        0.0709645349
 C          3.4339575358        1.0603476644        0.7995526251
 C          4.3761120520       -0.0414960418        1.0311311688
 C          4.0562994174       -1.2766561354        0.6057805162
 C          4.9417400867       -2.4821296160        0.7269135965
 C          5.8303344385       -2.6435173047       -0.5146245133
 C          6.5602097826       -1.3637921463       -0.9232387233
 H          7.1778743751       -1.6052468457       -1.7909917033
 H          5.8258402862       -0.6233361663       -1.2488073121
 C          7.4399803884       -0.7551260753        0.1777585988
 H          7.6404066949       -1.5022817292        0.9464469277
 H          8.4004811568       -0.4726487145       -0.2582592169
 C          6.8609155443        0.5011019977        0.8312773270
 H          6.5746416595        1.2176827339        0.0571566263
 H          7.6479130761        0.9656189461        1.4311628772
 C          5.6549974400        0.2783271661        1.7526856862
 H          5.8889517307       -0.4981422728        2.4837535314
 H          5.4696736126        1.2127161290        2.2904514385
 H          6.5581291991       -3.4327868494       -0.3178124878
 H          5.2022740319       -2.9614499940       -1.3502677512
 H          5.5584444216       -2.3854723889        1.6184076755
 H          4.3083354008       -3.3651628992        0.8277273200
 O          2.8937033402       -1.5565801626       -0.0332632639
 C          1.9688142074       -0.5611727079       -0.3317414502
 O          0.9700866507       -0.9833956772       -0.9444783469
 O          3.6854424475        2.2148849746        1.2358633394
 C          1.2836859823        1.8830870775       -0.1892178785
 C         -0.1014765796        1.4888032053        0.2521308545
 C         -0.4300842417        1.5418385950        1.6033616939
 C         -1.6780645151        1.1407501243        2.0413027919
 C         -2.6191777155        0.6672565037        1.1435588229
 C         -2.2923048184        0.5895067408       -0.2031324884
 C         -1.0477233355        1.0199096444       -0.6443489934
 H         -0.7991364574        0.9452033796       -1.6915009933
 N         -3.2330040677        0.0998668994       -1.1235487382
 S         -4.1492096641       -1.2462038565       -0.7213174370
 O         -3.4656853693       -2.1236571485        0.1999307566
 O         -4.5438754577       -1.8222685972       -1.9888585427
 C         -5.5896811584       -0.5444668268        0.0601797853
 C         -6.0013848956       -1.0114177658        1.2929606101
 C         -7.1310018376       -0.4592431095        1.8769918340
 C         -7.8266436512        0.5442070031        1.2205251115
 C         -7.4023796805        1.0001677216       -0.0187338571
 C         -6.2746677565        0.4516296249       -0.6080222823
 H         -5.9142117577        0.7757403006       -1.5698407628
 H         -7.9458541033        1.7806320739       -0.5264623240
 H         -8.7045847883        0.9729963004        1.6773191875
 H         -7.4621365803       -0.8135616182        2.8399836043
 H         -5.4261559044       -1.7899506392        1.7688582979
 H         -2.8679411704        0.0143722392       -2.0613165775
 H         -3.5882091902        0.3369845910        1.4800937126
 H         -1.9213564677        1.1918067752        3.0917671649
 H          0.3108030667        1.8928782428        2.3084586675
 H          1.6343884394        2.6917559084        0.4721160839
 C          1.3190936519        2.4392292373       -1.6052263572
 C          2.6237854163        2.5919467272       -2.3268809301
 C          1.6094947190        1.6031028193       -2.8139082514
 H          1.0757355636        1.8264212905       -3.7266187172
 H          1.8015457423        0.5512393368       -2.6710442805
 H          2.7942132829        3.4864606949       -2.9065409001
 H          3.5081076534        2.2135291598       -1.8349293206
 H          0.5984627567        3.2410204482       -1.7359378189
