  62
        -98.94179172
 C         -1.4349251277       -1.6880512397       -0.6403937296
 C         -1.4543938447       -0.3186706464       -1.0049388852
 C         -2.7107219519        0.3987675913       -0.7265471703
 C         -3.7510475048       -0.2636828376       -0.1913583136
 C         -5.0689885611        0.3529241052        0.1765390682
 C         -5.0723639214        0.8268405222        1.6362972746
 C         -3.8576975103        1.6769142405        2.0085232861
 H         -3.9834712794        1.9860714288        3.0484757276
 H         -2.9603404647        1.0550851815        1.9647971448
 C         -3.6595238216        2.9161104251        1.1249135467
 H         -3.4303818266        3.7690987744        1.7669021010
 H         -4.5866443780        3.1471883993        0.5991668057
 C         -2.5164078865        2.8002586903        0.1147624386
 H         -1.6060374028        2.4773728243        0.6257595234
 H         -2.3277771085        3.7953964165       -0.2944261018
 C         -2.7579108441        1.8606059644       -1.0729409221
 H         -3.7048486207        2.1107164549       -1.5556657934
 H         -1.9486687645        2.0223223880       -1.7908395397
 H         -5.9865605528        1.3967851312        1.8124040336
 H         -5.0892678862       -0.0515371627        2.2857786413
 H         -5.2715832211        1.1895575894       -0.4891178287
 H         -5.8481769383       -0.4001478077        0.0465064310
 O         -3.7038157836       -1.5845340715        0.1207133412
 C         -2.5480515466       -2.3183399948       -0.0769005302
 O         -2.6373874083       -3.5134078791        0.2715245581
 O         -0.4927093815        0.2875153302       -1.5399701545
 C         -0.2139552120       -2.5750055787       -0.8336865964
 C          0.7362857621       -2.3963076132        0.3215449114
 C          1.0097073026       -3.4565892951        1.1785906594
 C          1.8474154531       -3.2861992226        2.2661488332
 C          2.4473756502       -2.0627221153        2.5029064521
 C          2.1827715778       -0.9968483795        1.6508956983
 C          1.3195549865       -1.1620173309        0.5781398825
 H          1.0995096292       -0.3239063110       -0.0644194423
 N          2.7797962639        0.2595267191        1.8513439879
 S          3.5408270543        0.9683807386        0.5290046941
 O          3.9831920548       -0.0375890219       -0.4083540141
 O          4.5836646803        1.7886138980        1.1137065748
 C          2.3354517175        2.0455045324       -0.2074123236
 C          2.0753706256        1.9607183593       -1.5586869917
 C          1.1860464866        2.8591956397       -2.1252623618
 C          0.5794857769        3.8205058506       -1.3344473477
 C          0.8497722794        3.8903059526        0.0243252546
 C          1.7383837314        2.9963470948        0.5966859877
 H          1.9797943878        3.0205861920        1.6467128785
 H          0.3696871719        4.6369621536        0.6366713379
 H         -0.1125429271        4.5184951104       -1.7794411061
 H          0.9655306743        2.7967399520       -3.1786259914
 H          2.5594052493        1.1902483467       -2.1366386642
 H          3.3735061171        0.3099973281        2.6675343579
 H          3.1141420490       -1.9299848199        3.3419905107
 H          2.0445747223       -4.1157711676        2.9283351550
 H          0.5446310857       -4.4146122352        0.9958721437
 H         -0.6036107885       -3.6039509596       -0.7832179560
 C          0.4268569716       -2.4091036222       -2.2055211291
 C          1.8159397636       -1.9071334183       -2.4488273165
 C          1.5045060135       -3.3594779756       -2.6389672056
 H          1.4750051725       -3.7619026589       -3.6404266359
 H          1.8803981705       -4.0492661030       -1.8976533578
 H          1.9701691820       -1.2985835073       -3.3280388294
 H          2.4355734807       -1.6163774502       -1.6145234564
 H         -0.3078530086       -2.1423825124       -2.9589742736
