  62
        -98.93758873
 C         -1.3656303896       -1.0575709260       -0.0778124515
 C         -1.8941399634       -0.0375902534        0.7457109996
 C         -2.9426948480        0.8134359225        0.1544298883
 C         -3.3278889437        0.5965722952       -1.1172066377
 C         -4.3342648349        1.3157305160       -1.9917985760
 C         -5.3163485640        2.3182339592       -1.3916303987
 C         -6.3812197010        1.7026602240       -0.4838211712
 H         -6.9502783443        2.5138098523       -0.0243547766
 H         -7.0704391154        1.1230981691       -1.1032913972
 C         -5.8594096700        0.7769222241        0.6122098135
 H         -6.7220353307        0.3931879555        1.1636602781
 H         -5.3597375810       -0.0819278050        0.1594615206
 C         -4.9150005732        1.4262515000        1.6213097335
 H         -5.3939903721        2.3030239922        2.0614577453
 H         -4.7414583482        0.7025237079        2.4221473575
 C         -3.5419669670        1.8437313840        1.0683245757
 H         -2.8536402666        1.9384287868        1.9132833331
 H         -3.5922572047        2.8129378321        0.5778914524
 H         -4.7793391689        3.1069336080       -0.8728782294
 H         -5.8328949149        2.7892856312       -2.2324438406
 H         -3.7450809555        1.8260116431       -2.7620815774
 H         -4.8957777653        0.5302014091       -2.5077886835
 O         -2.7621435741       -0.3821609296       -1.8849488392
 C         -1.7799211227       -1.2300275378       -1.3966450639
 O         -1.3674250118       -2.0673757527       -2.2207316671
 O         -1.4987043000        0.1643247249        1.9244109059
 C         -0.2933224395       -1.9693044516        0.4834860821
 C          1.0015996098       -1.8268658190       -0.2778585534
 C          1.8752539555       -2.8879123036       -0.4834051207
 C          3.0822220788       -2.6943456192       -1.1339937367
 C          3.4495607014       -1.4411568558       -1.5901627560
 C          2.5826045965       -0.3764119270       -1.3923590592
 C          1.3770531320       -0.5712559490       -0.7374266876
 H          0.7138876035        0.2704043756       -0.5767231912
 N          2.9753427036        0.9209431535       -1.8109506155
 S          4.0712686560        1.6320820082       -0.7544717325
 O          4.1385687338        3.0271825839       -1.1258902763
 O          5.3055033925        0.8926868856       -0.8107611060
 C          3.3057195024        1.4433828082        0.8447366718
 C          3.5203148246        0.2809606402        1.5576465199
 C          2.8155430851        0.0792169158        2.7333650092
 C          1.9109498080        1.0340280540        3.1709509074
 C          1.7117910579        2.1989459270        2.4466428308
 C          2.4086203241        2.4040903811        1.2671493007
 H          2.2777067698        3.2934436560        0.6706487926
 H          1.0043027930        2.9365845332        2.7898012960
 H          1.3487248725        0.8679172729        4.0760610378
 H          2.9660528714       -0.8268696987        3.2979386134
 H          4.2278568912       -0.4400021412        1.1816150955
 H          2.1888752432        1.5470889338       -1.9193844555
 H          4.3937474098       -1.2659519817       -2.0792626823
 H          3.7472839923       -3.5308130921       -1.2851067214
 H          1.6110138649       -3.8711660071       -0.1300097627
 H         -0.1147063951       -1.6077653753        1.5082406402
 C         -0.7932578823       -3.3981287490        0.5511175056
 C         -0.3541066440       -4.3071808715        1.6589730793
 C         -1.7542153024       -3.7746064856        1.6377996062
 H         -2.5631973233       -4.4491260205        1.4005625148
 H         -2.0212688748       -3.0071128418        2.3495672629
 H         -0.2027512854       -5.3530798586        1.4378954298
 H          0.3256330304       -3.9073672189        2.3959095629
 H         -0.9569140911       -3.8267193976       -0.4313145714
