  62
        -98.94570800
 C          0.9342100601        1.1640454995       -0.2600961804
 C          1.9507419098        1.1978616591        0.7311685300
 C          2.8519586494        0.0411262988        0.7870891201
 C          2.6715138894       -0.9700239710       -0.0814067901
 C          3.5631832291       -2.1721606613       -0.1930919399
 C          4.6947625895       -1.9326333015       -1.2028774195
 C          5.4440177999       -0.6166987617       -0.9943421191
 H          6.2375915601       -0.5720295719       -1.7435313188
 H          4.7657889002        0.2156368585       -1.1959368092
 C          6.0519855894       -0.4468067921        0.4049279112
 H          6.1171053190       -1.4157233522        0.9011257111
 H          7.0708109196       -0.0676295724        0.3003934116
 C          5.3012921594        0.5348959780        1.3065172810
 H          5.1544322599        1.4794650881        0.7767322111
 H          5.9276542092        0.7433548377        2.1780045713
 C          3.9391216091        0.0563106084        1.8246668505
 H          4.0466487686       -0.9279381017        2.2842223504
 H          3.6107227490        0.7620496384        2.5929779105
 H          5.3967822593       -2.7660983217       -1.1389323893
 H          4.2664052599       -1.9256496113       -2.2078420696
 H          3.9805853587       -2.4006978715        0.7855384602
 H          2.9639054690       -3.0171443111       -0.5333471702
 O          1.6765978598       -0.9804811006       -1.0012100304
 C          0.7769780301        0.0708114396       -1.1125664706
 O         -0.0803153296       -0.1077373000       -1.9996747509
 H         -1.9658699899        0.5703573104       -0.7972733815
 C         -2.1467064200        1.1565768004        0.0901191885
 C         -1.2392224498        2.1353718400        0.4729030290
 C         -1.4967648300        2.8791707800        1.6189792490
 C         -2.6383870103        2.6502014902        2.3657283685
 C         -3.5345808505        1.6663836005        1.9913104081
 C         -3.2830471003        0.9129666606        0.8484452981
 N         -4.1727473905       -0.0964247791        0.4645298577
 S         -3.7250833505       -1.3782929791       -0.4969807223
 O         -3.6344579799       -0.9639822090       -1.8735637622
 O         -4.7365426509       -2.3804917789       -0.2205082828
 C         -2.1560239209       -1.9936607196        0.0916104582
 C         -1.3708510708       -2.6869874398       -0.8061285217
 C         -0.1900525811       -3.2612913502       -0.3649960913
 C          0.1910129384       -3.1233486404        0.9600602588
 C         -0.6038449817       -2.4169995903        1.8481198786
 C         -1.7949186013       -1.8552252899        1.4166222083
 H         -2.4263039714       -1.3091873098        2.0984667281
 H         -0.3002550120       -2.3015640505        2.8763707088
 H          1.1140769282       -3.5638288107        1.3029985391
 H          0.4294584089       -3.8034706203       -1.0615421112
 H         -1.6888653005       -2.7485843896       -1.8344388518
 H         -4.8836733208       -0.3424489890        1.1364568274
 H         -4.4223011308        1.4772737807        2.5750791678
 H         -2.8282897205        3.2363420002        3.2518120585
 H         -0.7855297599        3.6299524797        1.9297454093
 C          0.0187351005        2.3758315898       -0.3262083106
 H          0.5769827506        3.1812037595        0.1711447497
 C         -0.3098949289        2.8260985800       -1.7350979606
 C         -0.7091452584        4.2522329302       -1.9633467706
 C          0.6233400516        3.7605983698       -2.4420449002
 H          0.7777449220        3.6285995099       -3.5024465902
 H          1.5064456716        4.0830772795       -1.9095459399
 H         -1.4744784781        4.4606346805       -2.6951396508
 H         -0.7274633885        4.9105192801       -1.1078936205
 H         -0.7971784389        2.0659118702       -2.3318407409
 O          2.1017168598        2.1622778189        1.5279481401
