  62
        -98.93198394
 C         -1.9791791838       -1.2619284022        0.0018442690
 C         -2.3514229175        0.0583257989       -0.3444661676
 C         -3.7515873891        0.4451872895       -0.0639999457
 C         -4.5875759545       -0.4536239848        0.4834254207
 C         -6.0409764018       -0.2965061626        0.8529132472
 C         -6.9383014256        0.4224090214       -0.1660619971
 C         -7.3895223690        1.8097141840        0.2937218413
 H         -8.3141258609        2.0674177380       -0.2276892858
 H         -7.6191987300        1.7647569011        1.3603635932
 C         -6.3876113439        2.9348392930        0.0401546222
 H         -6.3487412160        3.1498686480       -1.0300319202
 H         -6.7647900646        3.8316177590        0.5374223699
 C         -4.9630279657        2.6657227533        0.5295349976
 H         -4.9790307938        2.1737613923        1.5014509100
 H         -4.4707461984        3.6305039957        0.6702698016
 C         -4.1157416197        1.8505538567       -0.4588233090
 H         -4.6040652966        1.8275849572       -1.4376949879
 H         -3.1542632735        2.3501122452       -0.6153349708
 H         -6.4300447388        0.4887313895       -1.1268299562
 H         -7.8298802931       -0.1891043325       -0.3141885523
 H         -6.4032986843       -1.3146512323        1.0128991711
 H         -6.0995348447        0.2091191830        1.8200403086
 O         -4.1777500615       -1.7100686899        0.8216505374
 C         -2.8809853282       -2.1374607340        0.6116326122
 O         -2.6553254343       -3.2991510090        1.0046980137
 H          1.1581430591       -0.1707478452       -1.6142791199
 C          1.2468980736       -0.0483774662       -0.5462320682
 C          0.4355180370       -0.7855041262        0.3012560297
 C          0.5483994602       -0.5846206267        1.6738449261
 C          1.4403161674        0.3401455395        2.1831734798
 C          2.2399203681        1.0840826494        1.3337965605
 C          2.1349403952        0.8905173779       -0.0370108275
 N          2.9438595036        1.6443123772       -0.9029422424
 S          4.5654817324        1.8032255566       -0.5340692967
 O          4.7438150978        2.8163987639        0.4760299900
 O          5.2207719553        2.0508991021       -1.7992073665
 C          5.0435701526        0.2116344865        0.1162886079
 C          4.9549010528       -0.8834296926       -0.7205120800
 C          5.2816212556       -2.1346810897       -0.2245495165
 C          5.6873275684       -2.2696243381        1.0946189134
 C          5.7752531442       -1.1603224100        1.9207619844
 C          5.4487207728        0.0939043079        1.4298307708
 H          5.5027063366        0.9819178898        2.0381787739
 H          6.0931448335       -1.2681789419        2.9452621626
 H          5.9373977812       -3.2457420112        1.4793380273
 H          5.2160501623       -2.9994180421       -0.8652785785
 H          4.6434731205       -0.7420098418       -1.7429702858
 H          2.7960263741        1.4499656882       -1.8817162960
 H          2.9279748213        1.8235382443        1.7102733224
 H          1.5116668817        0.4879021070        3.2501044595
 H         -0.0843689877       -1.1581583873        2.3377197952
 C         -0.5688312590       -1.7903401027       -0.2046761853
 H         -0.5079527283       -2.6800311014        0.4426606802
 C         -0.2776609559       -2.2687155888       -1.6194587963
 C         -1.3451576613       -2.9345936006       -2.4341516323
 C         -0.8224649904       -1.5905032290       -2.8390484881
 H         -0.1927876928       -1.5314962145       -3.7153983572
 H         -1.4520286972       -0.7265482504       -2.6972561519
 H         -1.0776711244       -3.7941960804       -3.0300054121
 H         -2.3354582659       -2.9917395269       -2.0058622322
 H          0.7206832543       -2.6880671489       -1.7017215478
 O         -1.5690528159        0.8931209028       -0.8679525981
