  62
        -98.93373278
 C         -2.4380625992       -0.5436044348        0.2714289328
 C         -2.8586412062        0.7963430295        0.0696337728
 C         -4.1893597307        0.9815824275       -0.5161342707
 C         -4.9178604003       -0.0957475231       -0.8603880929
 C         -6.2828056780       -0.0777106882       -1.4932100151
 C         -7.4348101101        0.0771627052       -0.4909216093
 C         -7.5781766813        1.4691462673        0.1256771334
 H         -7.6056802896        2.2161047067       -0.6681951523
 H         -8.5445228452        1.4969668607        0.6329923019
 C         -6.4806611275        1.8300608298        1.1365071035
 H         -5.9651471029        0.9210908471        1.4552658353
 H         -6.9354330601        2.2684599990        2.0277179426
 C         -5.4453033452        2.8287822875        0.6190406387
 H         -4.6968835257        2.9828760167        1.4007978471
 H         -5.9279977007        3.7885732304        0.4217848243
 C         -4.7146550548        2.3787492920       -0.6528791537
 H         -5.3781899518        2.4530792647       -1.5142020723
 H         -3.8595597711        3.0407506009       -0.8102337208
 H         -7.3085968562       -0.6620141836        0.3034417546
 H         -8.3606525612       -0.1588915876       -1.0204826516
 H         -6.3994875508       -1.0345986057       -2.0062593046
 H         -6.3323003889        0.7221758019       -2.2325296102
 O         -4.4671595193       -1.3642414642       -0.6857634485
 C         -3.2277501107       -1.6291460286       -0.1114784591
 O         -2.9743233546       -2.8425559021       -0.0164520792
 O         -2.1480168050        1.7938952622        0.3714415163
 C         -1.0710033403       -0.7291515920        0.9040327551
 C          0.0054147575       -0.7828270671       -0.1478832284
 C         -0.0747450111       -1.6542104737       -1.2301681831
 C          0.9370678678       -1.7048398710       -2.1720237369
 C          2.0497122009       -0.8878961826       -2.0548135695
 C          2.1238702286        0.0005370639       -0.9940870064
 C          1.1096164954        0.0503743230       -0.0505671878
 H          1.1937402633        0.7468690163        0.7740108868
 N          3.2844016976        0.8208197277       -0.8496456635
 S          4.0733337116        0.6645150113        0.6293444893
 O          3.7187709980       -0.6019678179        1.2203578350
 O          3.8562617424        1.8500765316        1.4349878420
 C          5.7703726812        0.6156594659        0.0875170046
 C          6.5873903065        1.7160404626        0.2535746391
 C          7.8908008504        1.6602464885       -0.2157181568
 C          8.3499103921        0.5127492865       -0.8434839176
 C          7.5161343805       -0.5842190856       -1.0045753426
 C          6.2132616062       -0.5345196484       -0.5366328368
 H          5.5306830470       -1.3630228516       -0.6340845687
 H          7.8767139051       -1.4752670161       -1.4929793248
 H          9.3638824268        0.4720390994       -1.2091231052
 H          8.5413872180        2.5110007428       -0.0909838520
 H          6.1893954542        2.5859555189        0.7506717955
 H          3.1016177543        1.7983092637       -1.0278380942
 H          2.8505103041       -0.9257105828       -2.7751634671
 H          0.8614757264       -2.3938140770       -2.9995709946
 H         -0.9377176750       -2.2983445252       -1.3161887102
 H         -0.9057551181        0.1920059626        1.4873321598
 C         -0.9921508287       -1.8915532351        1.8827333115
 C         -0.2648309043       -3.1697060370        1.6085939441
 C          0.2989481469       -2.1877461825        2.5887032418
 H          0.2694362864       -2.4282302458        3.6409168432
 H          1.1769825223       -1.6312275456        2.2903411521
 H         -0.7070550759       -4.0822714810        1.9777063321
 H          0.2360088403       -3.2832285449        0.6605700297
 H         -1.8980911699       -1.9779333750        2.4748959928
