  62
        -98.94472118
 C         -2.0234838621       -0.9609121351       -0.4575432102
 C         -3.0917394558       -1.2497421597        0.4293658359
 C         -4.3733873154       -0.5974752126        0.1349099151
 C         -4.4648421328        0.2196674550       -0.9301085748
 C         -5.6907786604        0.9963046854       -1.3120403441
 C         -5.6900154082        2.3884117856       -0.6650293003
 C         -5.3982475450        2.3729169935        0.8355957441
 H         -4.3712441856        2.0361497069        0.9957756352
 H         -5.4550520633        3.4051429708        1.1880837274
 C         -6.3535616910        1.4979654449        1.6593246687
 H         -6.6539647766        2.0521588401        2.5510460415
 H         -7.2580532645        1.2947261250        1.0848179760
 C         -5.7496390880        0.1766656493        2.1386087133
 H         -4.7945421993        0.3692351081        2.6337878839
 H         -6.4236390985       -0.2542664975        2.8837272680
 C         -5.5256152653       -0.8861084645        1.0555003238
 H         -5.2793076412       -1.8256485273        1.5586269543
 H         -6.4462048036       -1.0319747809        0.4868498429
 H         -6.6616868706        2.8524430228       -0.8439324006
 H         -4.9270286187        2.9977705491       -1.1551651174
 H         -5.7021380639        1.1100871814       -2.3973799803
 H         -6.5758459443        0.4422748111       -1.0053480436
 O         -3.4226067873        0.4685076038       -1.7617376445
 C         -2.1752025189       -0.1007694055       -1.5451090228
 O         -1.3178291759        0.2304668279       -2.3864441323
 H          1.1462683694       -0.1288085500       -1.6009481885
 C          1.1396478368        0.1289209664       -0.5538256114
 C          0.2717678658       -0.5215763432        0.3099140852
 C          0.2624289484       -0.1490945988        1.6510094736
 C          1.0986441710        0.8500097096        2.1139964024
 C          1.9614947063        1.4995183728        1.2486290800
 C          1.9713102912        1.1400539889       -0.0923601368
 N          2.8584601189        1.7896165838       -0.9720483229
 S          4.4721214437        1.7789285521       -0.5230166740
 O          4.7141499731        2.8317100941        0.4318019403
 O          5.2209377614        1.8621956947       -1.7572962022
 C          4.7049136028        0.1903440646        0.2561887217
 C          4.5354437670       -0.9419343529       -0.5160539917
 C          4.6464211779       -2.1852554934        0.0838789715
 C          4.9199127706       -2.2747251737        1.4402897096
 C          5.0911002296       -1.1289011162        2.2010267225
 C          4.9797045876        0.1178186744        1.6062749545
 H          5.1006009486        1.0338819248        2.1609073983
 H          5.3049601273       -1.2020758059        3.2551348083
 H          4.9998773049       -3.2444296896        1.9057720385
 H          4.5133473557       -3.0782349760       -0.5055715137
 H          4.3282968848       -0.8372863861       -1.5689932707
 H          2.7469949610        1.5052262699       -1.9344135273
 H          2.6225994269        2.2809280092        1.5873302706
 H          1.0805754613        1.1261100956        3.1572561842
 H         -0.4175057794       -0.6501566456        2.3256377231
 C         -0.6727912180       -1.5955909235       -0.1689971721
 H         -0.8530193053       -2.2840851252        0.6674151471
 C         -0.1369103332       -2.3864117051       -1.3447298160
 C          1.0522384810       -3.2759786370       -1.1402530751
 C         -0.3026266565       -3.8749553170       -1.3658881062
 H         -0.5043081392       -4.3562834486       -2.3112204521
 H         -0.8057062850       -4.3339430556       -0.5276216848
 H          1.7826896106       -3.3482850658       -1.9314530800
 H          1.4706636772       -3.3225818408       -0.1463087320
 H         -0.2246125835       -1.8664040769       -2.2907356171
 O         -2.9772990353       -2.0203501995        1.4191843928
