  62
        -98.94052563
 C         -2.5596478411       -0.4287610729        0.0539765317
 C         -2.1952647474       -1.4436796721       -0.8610543021
 C         -1.3697126030       -2.5331829737       -0.3254992063
 C         -1.0436374681       -2.5272152297        0.9797735333
 C         -0.1041942434       -3.4930990829        1.6446829544
 C          1.3510911044       -3.0716526010        1.3524063680
 C          2.1382179642       -4.0538330819        0.4830016206
 H          3.0417062747       -3.5375237578        0.1512999352
 H          2.4458354904       -4.9024674523        1.0984231330
 C          1.4061179416       -4.6091937467       -0.7422438848
 H          0.7301295409       -5.4084534312       -0.4336456570
 H          2.1632783001       -5.0693447527       -1.3807701615
 C          0.6147093208       -3.5928348335       -1.5755146616
 H          1.0101266745       -2.5840630362       -1.4413441778
 H          0.7422249334       -3.8443960611       -2.6307852153
 C         -0.9004050779       -3.5819414924       -1.2939551889
 H         -1.4287395485       -3.3622593841       -2.2263879360
 H         -1.2216259037       -4.5708558775       -0.9551170018
 H          1.8867692128       -2.9441610064        2.2949564818
 H          1.3334360175       -2.0883188497        0.8745433149
 H         -0.3011595479       -3.4542336312        2.7163350415
 H         -0.2932207768       -4.5030310154        1.2876112715
 O         -1.4760651430       -1.5739551108        1.8452275794
 C         -2.1856955862       -0.4712402172        1.3969335646
 O         -2.4408473334        0.3705263949        2.2802955656
 H         -0.6282462109        0.7824901985       -0.9943527180
 C         -0.9296039110        1.7464862688       -0.6106180048
 C         -2.2642944950        1.9774947174       -0.3029480135
 C         -2.6253024767        3.2342948654        0.1641333512
 C         -1.6626221123        4.2125104953        0.3508026789
 C         -0.3268071295        3.9555562302        0.1014035547
 C          0.0410135142        2.7060054514       -0.3844832579
 N          1.3841893647        2.3777835409       -0.6527499510
 S          1.8605988058        0.8181401472       -0.1905301285
 O          1.5582248310       -0.1010971544       -1.2592946851
 O          1.3171639419        0.4993380929        1.1093724348
 C          3.6278995293        1.0347135474       -0.0892835475
 C          4.2214300606        1.2201967712        1.1446745276
 C          5.5920385913        1.4192043090        1.2058469892
 C          6.3403006202        1.4324418241        0.0383372663
 C          5.7302434022        1.2433549783       -1.1930872322
 C          4.3608126612        1.0422694979       -1.2612102101
 H          3.8431382693        0.8812555956       -2.1924117997
 H          6.3153485730        1.2511082388       -2.0984260155
 H          7.4063162987        1.5879809094        0.0889085428
 H          6.0690349218        1.5622126288        2.1619866787
 H          3.5984660086        1.1941116734        2.0246039580
 H          2.0299644519        3.0708217037       -0.2975498088
 H          0.4236642811        4.7099612897        0.2828624566
 H         -1.9555190642        5.1834983291        0.7206851257
 H         -3.6566459862        3.4428964120        0.3976111968
 C         -3.2292571649        0.8275954577       -0.4753373077
 H         -3.3708944518        0.6527632628       -1.5528729782
 C         -4.5795943545        1.0620846889        0.1649525555
 C         -5.6542675568        1.7877896916       -0.5870289429
 C         -5.7670290556        0.3116904454       -0.3570739597
 H         -6.4992210746       -0.0487541744        0.3495390478
 H         -5.6032794834       -0.3523433239       -1.1933327633
 H         -5.4229881237        2.1273292647       -1.5853586567
 H         -6.3151308654        2.4417150412       -0.0384335004
 H         -4.5104776268        1.2087346754        1.2366911527
 O         -2.5325007687       -1.4266683216       -2.0777763945
