  62
        -98.93869067
 C          1.1027720639        1.7925491814        0.2854849523
 C          1.5687719219        0.7586751793        1.1296726731
 C          2.8075681355        0.0769711933        0.7132252433
 C          3.3948866173        0.4420011078       -0.4397547395
 C          4.6431789312       -0.1250852857       -1.0582144420
 C          4.3061056251       -1.2569720249       -2.0430806918
 C          4.2167409949       -2.6456634244       -1.4136261542
 H          3.8615266824       -3.3306235074       -2.1866342421
 H          5.2173159204       -2.9709586100       -1.1210542271
 C          3.2903566958       -2.7538464938       -0.2001754834
 H          2.3637221836       -2.2103833663       -0.3936192730
 H          3.0300000490       -3.8058855346       -0.0783815509
 C          3.9312747906       -2.2503977211        1.1014356817
 H          3.8251067674       -3.0127279270        1.8762450255
 H          5.0017915280       -2.1186586191        0.9462522268
 C          3.3312891366       -0.9581151747        1.6716981666
 H          4.0715747084       -0.4799766629        2.3228101053
 H          2.4746246531       -1.2000710720        2.3086094081
 H          3.3586478466       -1.0092204178       -2.5283849711
 H          5.0732208563       -1.2851878186       -2.8196020998
 H          5.3337494973       -0.4635756892       -0.2915335587
 H          5.1090672489        0.6921683535       -1.6128164223
 O          2.8727713976        1.3979379246       -1.2572295543
 C          1.7284517791        2.1000097625       -0.9224573864
 O          1.3852017912        2.9513351285       -1.7637089561
 O          0.9801662075        0.4219846749        2.1934891323
 C         -0.1280718737        2.5789501480        0.7003768668
 C         -1.2592984275        2.3091350499       -0.2605121550
 C         -1.8326462508        3.2815395977       -1.0681604791
 C         -2.8696456019        2.9537699508       -1.9245351746
 C         -3.3739228932        1.6677066226       -1.9669043668
 C         -2.8112308027        0.6866511744       -1.1563910198
 C         -1.7478629258        1.0092245099       -0.3302223205
 H         -1.3032685054        0.2451727793        0.2899716979
 N         -3.3079170040       -0.6252424855       -1.1689246011
 S         -3.4856993288       -1.4865736750        0.2606013030
 O         -4.6554301030       -2.3120167528        0.0391623262
 O         -3.5318277454       -0.6099621097        1.4054232871
 C         -2.0620128087       -2.5528341607        0.3202163259
 C         -1.0611679734       -2.3495894464        1.2483837901
 C          0.0067355940       -3.2329972731        1.2833173824
 C          0.0553514385       -4.2972865159        0.3973523166
 C         -0.9543932198       -4.4843846249       -0.5344373870
 C         -2.0242466519       -3.6063842329       -0.5735099365
 H         -2.8404003838       -3.7262881980       -1.2664222616
 H         -0.9124157020       -5.3122306909       -1.2237280468
 H          0.8830488182       -4.9873826126        0.4372645592
 H          0.7942315426       -3.0789796234        2.0034060265
 H         -1.1202135930       -1.5131133599        1.9283017625
 H         -4.1036601744       -0.7628070713       -1.7751897478
 H         -4.1964408069        1.4195348781       -2.6207672563
 H         -3.3009440185        3.7154149130       -2.5565027369
 H         -1.4629889906        4.2927749087       -1.0358791473
 H         -0.4217888836        2.1679562678        1.6776423569
 C          0.1996130033        4.0469875563        0.8707287331
 C         -0.6794316148        4.9105362217        1.7234174547
 C          0.6902260455        4.5333634074        2.2000306379
 H          1.4577643913        5.2924767808        2.2196989759
 H          0.7736192171        3.8080380278        2.9963378400
 H         -0.8534037190        5.9313365245        1.4188191825
 H         -1.5288092724        4.4413405831        2.1970921669
 H          0.6453879068        4.4862169083       -0.0141084695
