  62
        -98.93902267
 C         -1.8971581611       -0.2617367049       -0.0113635479
 C         -2.9643795570       -1.0007359216        0.5494279798
 C         -4.2673628775       -0.3193896989        0.6365708210
 C         -4.3795390160        0.9477196429        0.1959557982
 C         -5.5557865781        1.9019448194        0.1992539125
 C         -6.9756814174        1.3934203602        0.4355953576
 C         -7.5267394735        0.4952063993       -0.6711012874
 H         -7.6802924817        1.1018610448       -1.5671951957
 H         -8.5019219413        0.1206116229       -0.3523129240
 C         -6.6436585665       -0.6874088343       -1.0613517552
 H         -5.7051543276       -0.3211979062       -1.4827493966
 H         -7.1567199794       -1.2402684864       -1.8530294883
 C         -6.3320084845       -1.6708033412        0.0651684107
 H         -5.8417208047       -2.5388272732       -0.3835756624
 H         -7.2624623010       -2.0122077189        0.5227934004
 C         -5.4060833916       -1.1383138758        1.1729582289
 H         -4.9545912843       -1.9975907095        1.6772070000
 H         -5.9634794125       -0.5777089069        1.9195128483
 H         -7.6162425967        2.2778366774        0.4916217159
 H         -7.0427727772        0.8954722809        1.3983233961
 H         -5.5176173278        2.4219065445       -0.7632804473
 H         -5.3258751266        2.6531939286        0.9630610238
 O         -3.3144834614        1.6264805891       -0.3236010076
 C         -2.0598309178        1.0510053753       -0.4490160712
 O         -1.2035219037        1.8005332530       -0.9548171735
 O         -2.8341197688       -2.1812309139        0.9712076338
 C         -0.5342909645       -0.9221524877       -0.1326184245
 C          0.4664105431       -0.1433619519        0.6832030821
 C          0.2889530951       -0.0855751103        2.0644157328
 C          1.1475209764        0.6494109571        2.8570360842
 C          2.2080472686        1.3357839237        2.2904117223
 C          2.3949216219        1.2854301920        0.9147059179
 C          1.5301942938        0.5422043543        0.1202343725
 H          1.6855057636        0.5414923088       -0.9448077444
 N          3.4471433283        1.9971842465        0.3180393179
 S          4.3940810176        1.3215608403       -0.8793698080
 O          5.5209134335        2.2207581560       -0.9953975293
 O          3.6241433528        1.1037855128       -2.0765142602
 C          4.9345428050       -0.2337731385       -0.1939321929
 C          6.0486615518       -0.2388665102        0.6231286024
 C          6.4447121460       -1.4291280582        1.2106382355
 C          5.7178668339       -2.5873706893        0.9794801809
 C          4.6015474940       -2.5651455215        0.1579687146
 C          4.2022134417       -1.3781678812       -0.4362947860
 H          3.3423760485       -1.3246703433       -1.0830123905
 H          4.0382998077       -3.4666392476       -0.0233149943
 H          6.0241003324       -3.5136502877        1.4394351244
 H          7.3152875051       -1.4504889354        1.8462064475
 H          6.5905229154        0.6818276674        0.7670574982
 H          4.0145782352        2.5237586804        0.9658137924
 H          2.8762514476        1.9185474302        2.9061334884
 H          0.9940667927        0.6887353601        3.9248947064
 H         -0.5439246635       -0.6175393402        2.5035962324
 H         -0.6537571402       -1.9147595541        0.3252087596
 C         -0.1516694319       -1.1015111350       -1.5855887734
 C          0.7976726056       -2.1921791482       -1.9790364417
 C         -0.6566946928       -2.3037294748       -2.3235293069
 H         -0.9553769064       -2.1875024492       -3.3545946989
 H         -1.2612354986       -3.0076472646       -1.7703609955
 H          1.5003281306       -1.9997758446       -2.7765699206
 H          1.1766066373       -2.8287726747       -1.1936008336
 H         -0.1102493474       -0.1665795105       -2.1334535809
