  62
        -98.93285250
 C          2.5457102504        1.4244450004       -0.0670871977
 C          2.4523608680        0.1934656640       -0.7583468020
 C          3.7003972765       -0.5791639108       -0.8689292406
 C          4.8320526808       -0.0790379743       -0.3399337346
 C          6.1606870477       -0.7791275841       -0.3000471370
 C          6.1601076552       -1.8425815016        0.8167807749
 C          6.2746513649       -3.2825159035        0.3160900723
 H          7.3079115591       -3.4741606596        0.0192906644
 H          6.0457073737       -3.9402218935        1.1573092555
 C          5.3722419407       -3.6519937501       -0.8651409438
 H          5.8136080592       -3.2858424623       -1.7932268408
 H          5.3664621728       -4.7419831526       -0.9319870141
 C          3.9221552745       -3.1571709873       -0.7834568932
 H          3.6281616676       -2.9901668520        0.2532846942
 H          3.2716853230       -3.9434278669       -1.1725222058
 C          3.6299360038       -1.8880044413       -1.6058236261
 H          4.2922759523       -1.8557520256       -2.4754380374
 H          2.6019582778       -1.9435116825       -1.9767751869
 H          6.9876501165       -1.6519647865        1.5017146736
 H          5.2410271161       -1.7301612681        1.3960796038
 H          6.3646317387       -1.2369669101       -1.2652451869
 H          6.9206669339       -0.0226988679       -0.1035776137
 O          4.8822186775        1.1155306045        0.3053342207
 C          3.7460159407        1.8901460540        0.4682322226
 O          3.9302808015        2.9519113023        1.0964498107
 H         -1.3013398965        1.7103208387       -0.5889234173
 C         -1.0208510846        1.2849126060        0.3620685204
 C          0.2560820414        1.4875633213        0.8574213400
 C          0.5904533202        0.9198741313        2.0844492025
 C         -0.3280690736        0.1646558522        2.7864642463
 C         -1.6031986065       -0.0386312179        2.2865830165
 C         -1.9475333412        0.5217373827        1.0648854979
 N         -3.2506962942        0.3590626838        0.5513198017
 S         -3.9439804139       -1.1802220593        0.5134988086
 O         -4.1489251320       -1.6315814243        1.8664330761
 O         -3.1829775094       -2.0639604089       -0.3429574429
 C         -5.5133756392       -0.7905236107       -0.2353640807
 C         -6.4991847226       -0.2336348709        0.5568593151
 C         -7.7138415282        0.0991116222       -0.0208134003
 C         -7.9210396566       -0.1281945460       -1.3734113315
 C         -6.9224660280       -0.6887992298       -2.1552954316
 C         -5.7045800857       -1.0230445100       -1.5837069347
 H         -4.9028678004       -1.4680298338       -2.1514192939
 H         -7.0870370888       -0.8667636092       -3.2058838428
 H         -8.8675851820        0.1309461078       -1.8209284967
 H         -8.4937145992        0.5333058709        0.5836902245
 H         -6.2956269527       -0.0825945991        1.6039097345
 H         -3.3336832610        0.7726900822       -0.3687878812
 H         -2.3221625000       -0.6372628201        2.8207460810
 H         -0.0519321653       -0.2731495064        3.7344108438
 H          1.5880553730        1.0735649268        2.4747722489
 C          1.3078094472        2.2834413916        0.1228885462
 H          1.6142613979        3.1188715472        0.7686671004
 C          0.8469459048        2.8408283027       -1.2072711664
 C          0.0526009758        4.1106586902       -1.2556246232
 C          1.4773913001        4.0994971480       -1.7196358777
 H          1.6778660885        4.1816272042       -2.7773561641
 H          2.2257972376        4.5671790788       -1.0965445318
 H         -0.1705848587        4.5951402059       -0.3172176994
 H         -0.7250966605        4.2061795839       -1.9983490233
 H          0.6236861214        2.0648404127       -1.9307425320
 O          1.3822104969       -0.2390366397       -1.2629469472
