  62
        -98.94158429
 C         -1.9918046359       -1.5097843402        0.0183202567
 C         -2.2027377663       -0.5388824720       -0.9916834911
 C         -3.5357078344        0.0867001566       -1.0127670358
 C         -4.4556587544       -0.2717151528       -0.1001690141
 C         -5.8247166714        0.3298310055        0.0252269709
 C         -5.8221592275        1.5225115848        0.9916509298
 C         -4.7123148855        2.5376057642        0.7177912117
 H         -4.8284051695        3.3491995460        1.4394535993
 H         -3.7444799397        2.0704203446        0.9153423459
 C         -4.7164498488        3.1142824027       -0.7049387654
 H         -4.5699286112        4.1948681875       -0.6448088539
 H         -5.6880315820        2.9449472405       -1.1704483586
 C         -3.6161427648        2.5657192262       -1.6152378918
 H         -2.6500212567        2.6506478274       -1.1109069906
 H         -3.5729322383        3.1916252803       -2.5106875217
 C         -3.7947302251        1.1143703850       -2.0788900334
 H         -4.7918010075        0.9851798769       -2.5044438177
 H         -3.0578436987        0.9245493022       -2.8648214617
 H         -6.7930592552        2.0176510119        0.9316038435
 H         -5.6958217564        1.1442355649        2.0087390401
 H         -6.1689518863        0.6459907232       -0.9575828552
 H         -6.5020570066       -0.4350760650        0.4087640961
 O         -4.2185814815       -1.2055252448        0.8555108754
 C         -2.9912123100       -1.8388166108        0.9399620395
 O         -2.9117795857       -2.6743984728        1.8624938545
 O         -1.3390878993       -0.1918693152       -1.8388872188
 C         -0.6865941452       -2.2736932224        0.1826677212
 C          0.3179767884       -1.4812328618        0.9780674301
 C          0.9522784461       -2.0342245662        2.0838087276
 C          1.8847578496       -1.3034914547        2.8004477675
 C          2.2065553431       -0.0111258280        2.4266783809
 C          1.5803712215        0.5490932788        1.3202883015
 C          0.6437624327       -0.1836437276        0.6060170169
 H          0.1625833873        0.2547025665       -0.2559403911
 N          1.9080203828        1.8608096608        0.9197265290
 S          3.5197526744        2.1611750068        0.5695557820
 O          4.2744875664        2.1690735596        1.7972602216
 O          3.5268750685        3.3881781307       -0.1931518494
 C          4.0224565224        0.7885351981       -0.4504690624
 C          4.5881362079       -0.3259654291        0.1360422026
 C          4.8983720256       -1.4157994819       -0.6617027174
 C          4.6416333035       -1.3721654440       -2.0232017414
 C          4.0792373300       -0.2425627487       -2.5978651243
 C          3.7586187294        0.8470163592       -1.8046133383
 H          3.3195608554        1.7434337507       -2.2127654114
 H          3.8811138564       -0.2099849174       -3.6570803195
 H          4.8793320266       -2.2236232379       -2.6405680558
 H          5.3353918268       -2.2956853819       -0.2181314940
 H          4.7799117040       -0.3179803501        1.1961425022
 H          1.3309070569        2.1914035422        0.1589989728
 H          2.9330696183        0.5715451105        2.9698036638
 H          2.3649866665       -1.7440340296        3.6608596712
 H          0.6998816362       -3.0393321815        2.3885216865
 H         -0.9523610024       -3.1613497469        0.7774588967
 C         -0.1264126420       -2.7744986492       -1.1436134299
 C          1.1165739127       -2.2411311431       -1.7833766932
 C          1.1245468981       -3.6028534741       -1.1615648532
 H          1.1618984813       -4.4699612389       -1.8029848728
 H          1.6526852552       -3.7182614599       -0.2271500292
 H          1.1249199272       -2.1575881203       -2.8591232512
 H          1.6556753698       -1.4511911110       -1.2850062477
 H         -0.9191729234       -3.0777434435       -1.8203213892
