  62
        -98.94054872
 C         -2.3444724504        0.1491141583       -0.2849072764
 C         -3.5097875100        0.4970485962       -1.0087679896
 C         -4.7330544098       -0.2296476722       -0.6448825008
 C         -4.6752434870       -1.1754246791        0.3107789143
 C         -5.8541163919       -1.9541165345        0.8171478437
 C         -6.5061550911       -1.2549993304        2.0183284439
 C         -6.7836602037        0.2311975707        1.7919689743
 H         -7.2702961996        0.6120435001        2.6925278218
 H         -5.8329066562        0.7601700457        1.6930032761
 C         -7.6612714224        0.5341171822        0.5694501712
 H         -8.1909686728       -0.3678628567        0.2610808489
 H         -8.4148112657        1.2716457448        0.8535631654
 C         -6.9034179055        1.1104929307       -0.6279242961
 H         -6.2959079853        1.9590739912       -0.3032180417
 H         -7.6369541954        1.4887215417       -1.3449022468
 C         -5.9954890504        0.1276761414       -1.3780708522
 H         -6.5595179862       -0.7707296995       -1.6364357138
 H         -5.6757984506        0.6122247870       -2.3052942652
 H         -7.4396483586       -1.7699244555        2.2524128836
 H         -5.8393305483       -1.3513349334        2.8782812812
 H         -6.5786919725       -2.0702808675        0.0135951043
 H         -5.5062469112       -2.9408302877        1.1271259742
 O         -3.5310787463       -1.5004289989        0.9657539864
 C         -2.3399943621       -0.8425441461        0.6958123247
 O         -1.3736816579       -1.2288072969        1.3801881745
 H          1.5457116079        0.6081837522        0.3429472459
 C          1.2905666987       -0.0941987192       -0.4324730281
 C          0.0259955468       -0.0975947243       -0.9977095003
 C         -0.2540208956       -1.0258391384       -1.9982016712
 C          0.7042888462       -1.9299065496       -2.4116731493
 C          1.9688476890       -1.9186822733       -1.8491337669
 C          2.2591625482       -0.9967415406       -0.8513355138
 N          3.5246011638       -0.9760726406       -0.2438813797
 S          4.1636421535        0.5034596505        0.2548460591
 O          3.6379895187        0.8314700106        1.5560102579
 O          3.9793235714        1.4972857903       -0.7787557345
 C          5.8888347695        0.0728763699        0.3957191135
 C          6.7508459312        0.3732102761       -0.6421055989
 C          8.0838138555        0.0090252004       -0.5332080231
 C          8.5289858332       -0.6483729750        0.6037716322
 C          7.6520068310       -0.9427881871        1.6374038811
 C          6.3182962491       -0.5805344350        1.5355623064
 H          5.6022641110       -0.7801123608        2.3158541322
 H          8.0023263744       -1.4516436314        2.5209147880
 H          9.5666711848       -0.9305280243        0.6865616573
 H          8.7686957101        0.2394818795       -1.3332667097
 H          6.3614844208        0.8931040771       -1.5026515037
 H          4.2082732086       -1.5347691733       -0.7357786614
 H          2.7198197790       -2.6229545456       -2.1734882467
 H          0.4691916860       -2.6453806999       -3.1854617222
 H         -1.2393951555       -1.0286942830       -2.4446984837
 C         -1.0489079995        0.8781928565       -0.5880250579
 H         -1.2698748463        1.5216929312       -1.4535481649
 C         -0.6539661101        1.7580336694        0.5791653857
 C          0.1872752117        2.9774638960        0.3534353908
 C         -1.2616625286        3.1213593393        0.7074267434
 H         -1.5195625153        3.4810175228        1.6922256144
 H         -1.9480539135        3.4321878352       -0.0667353296
 H          0.4910069601        3.1939078643       -0.6599498754
 H          0.9323554221        3.2315157261        1.0930076466
 H         -0.4944480408        1.1930520164        1.4917662292
 O         -3.5242209933        1.3694907307       -1.9188881784
