  62
        -98.94198150
 C         -0.0179427232       -1.9076205737       -0.6134428054
 C          0.7146570427       -2.1013133199        0.5800379995
 C          2.1317320341       -1.6980611905        0.5520234223
 C          2.6391999675       -1.1362665617       -0.5608700793
 C          4.0397071466       -0.6575524574       -0.8801062617
 C          5.0553746483       -0.4117950760        0.2333128927
 C          4.7088761224        0.7307351137        1.1873158765
 H          5.4563372605        0.7435384591        1.9836214075
 H          4.7854137580        1.6747806141        0.6438546316
 C          3.3182722302        0.6725847402        1.8145645869
 H          3.2138742382        1.5357017620        2.4769387730
 H          2.5577310006        0.7723613835        1.0373609994
 C          3.0239669409       -0.5794518618        2.6383308751
 H          3.7977390289       -0.7142756789        3.3966929729
 H          2.0733890449       -0.4173354364        3.1537780065
 C          2.8927428748       -1.8837091117        1.8326839741
 H          3.8643678446       -2.3323479269        1.6404168109
 H          2.3155535450       -2.5932486097        2.4326445293
 H          5.9972308260       -0.1550042428       -0.2593437340
 H          5.2333036964       -1.3277958089        0.7890095197
 H          4.4590148814       -1.3999192342       -1.5685138436
 H          3.9112929251        0.2618841059       -1.4579193701
 O          1.8846299863       -0.9550436546       -1.6850524701
 C          0.5527967227       -1.3229019680       -1.7409808399
 O         -0.0050458090       -1.0766012775       -2.8304659872
 H         -1.2600811545        0.3596684378       -0.3341226825
 C         -1.9678864162       -0.0488883236        0.3725300017
 C         -2.2286988832       -1.4137762328        0.3590298854
 C         -3.1437816142       -1.9239260607        1.2696714233
 C         -3.7667343124       -1.0837897232        2.1769679469
 C         -3.5096827070        0.2745814092        2.1809316350
 C         -2.6028674911        0.7973857412        1.2650180201
 N         -2.3046411705        2.1678668474        1.2385902816
 S         -2.0804879522        2.9460528384       -0.2274393257
 O         -2.3953380466        4.3312646529        0.0552428242
 O         -2.8489796789        2.3235580123       -1.2794196210
 C         -0.3359975483        2.8337867835       -0.5622522548
 C          0.1087752177        2.2214054588       -1.7161701184
 C          1.4680268390        2.2072004300       -1.9880343076
 C          2.3529654696        2.8075520814       -1.1069550568
 C          1.8915124142        3.4152767760        0.0514412945
 C          0.5348586596        3.4312715166        0.3284025837
 H          0.1353787347        3.9049125826        1.2095480327
 H          2.5854418964        3.8770576270        0.7350343411
 H          3.4091064570        2.8056724825       -1.3273493286
 H          1.8190701989        1.7178919818       -2.8830985211
 H         -0.6036887181        1.7564757616       -2.3808845000
 H         -2.8381181672        2.7324202934        1.8836028630
 H         -4.0013817298        0.9275299798        2.8860105783
 H         -4.4690681182       -1.4929869499        2.8874190288
 H         -3.3637060619       -2.9787836620        1.2761427193
 C         -1.4944674049       -2.2547862886       -0.6584484075
 H         -1.8490731211       -1.9566530982       -1.6567974696
 C         -1.7043226289       -3.7443358100       -0.4898536542
 C         -2.9049124749       -4.4082796154       -1.0920597878
 C         -1.5470167796       -4.6358025297       -1.6834940147
 H         -1.0793169115       -5.5996304220       -1.5499085247
 H         -1.3130263722       -4.1642115719       -2.6272300360
 H         -3.3705562640       -5.2205179753       -0.5545539420
 H         -3.5976983745       -3.7868375937       -1.6395984693
 H         -1.3363689377       -4.1117951278        0.4608493179
 O          0.2156751401       -2.5942259080        1.6251029071
