  62
        -98.94134863
 C         -1.3302159671       -1.7156091538        0.0243339470
 C         -2.1456403091       -1.1365905803        1.0229351540
 C         -2.9864292480       -0.0022916114        0.6090887028
 C         -2.9238735542        0.4386164768       -0.6616676009
 C         -3.7239773534        1.5118219184       -1.3677979783
 C         -4.4093725138        2.6243007609       -0.5769844179
 C         -3.4683606291        3.5364672713        0.2070252552
 H         -2.8594164521        4.1032634042       -0.5005545883
 H         -4.0792314544        4.2485715148        0.7664601161
 C         -2.5210887549        2.8307778017        1.1747994485
 H         -1.7963867893        2.2370531911        0.6131592020
 H         -1.9569261221        3.5989143136        1.7106443019
 C         -3.1959838594        1.9399773259        2.2178246712
 H         -3.9674498416        2.5066154504        2.7425857975
 H         -2.4337524909        1.6596261319        2.9501049286
 C         -3.8199890734        0.6373309680        1.6808120565
 H         -4.8365052890        0.7980833465        1.3290878720
 H         -3.8688167189       -0.0795239819        2.5055792892
 H         -5.1642622472        2.2092461765        0.0844037436
 H         -4.9368259852        3.2431539673       -1.3080597511
 H         -3.0398446002        1.9576571780       -2.0944634507
 H         -4.4898414233        0.9832966128       -1.9467162975
 O         -2.0936083717       -0.1302474621       -1.5813628638
 C         -1.2707897685       -1.2001608308       -1.2692917666
 O         -0.5544630137       -1.5870994152       -2.2102103229
 O         -2.1752766225       -1.5531786084        2.2136369165
 C         -0.4408588815       -2.8910174766        0.3885192794
 C          1.0037012610       -2.4785602062        0.2530031352
 C          1.9365092257       -3.1658592661       -0.5107063426
 C          3.2374667703       -2.7009700484       -0.6142861044
 C          3.6374927339       -1.5524927548        0.0431985877
 C          2.7117755061       -0.8600477792        0.8150289125
 C          1.4111853870       -1.3267269585        0.9172869553
 H          0.6912276654       -0.7855030461        1.5191059605
 N          3.1082846054        0.3144202650        1.4915893759
 S          3.5674990243        1.6287424629        0.5634809191
 O          4.6590073151        1.2361853262       -0.2898574127
 O          3.8379664390        2.6904654913        1.5053235028
 C          2.1458442703        2.0592380278       -0.4261307033
 C          1.7759302846        1.2336282430       -1.4695880091
 C          0.6643478539        1.5686343524       -2.2266707691
 C         -0.0470951774        2.7216538941       -1.9338047440
 C          0.3339260155        3.5384153651       -0.8803572794
 C          1.4366001057        3.2017910876       -0.1127013593
 H          1.7697330986        3.8069903515        0.7149961587
 H         -0.2233954623        4.4333530764       -0.6545216193
 H         -0.9034247372        2.9842867594       -2.5351276979
 H          0.3526860048        0.9151415231       -3.0262625998
 H          2.3500646256        0.3463531774       -1.6827805931
 H          2.4338236835        0.6206704984        2.1792444436
 H          4.6408053354       -1.1691123750       -0.0446602920
 H          3.9507834008       -3.2419981251       -1.2174171673
 H          1.6451526775       -4.0611562125       -1.0343953748
 H         -0.6398281724       -3.0902254459        1.4519339893
 C         -0.8093358610       -4.1188649351       -0.4151687739
 C         -0.5152055884       -5.4854971909        0.1250954240
 C         -1.9284117725       -4.9908978336        0.0666048991
 H         -2.5976135708       -5.4213619198       -0.6630918251
 H         -2.4130669359       -4.7126134576        0.9911733324
 H         -0.2152989401       -6.2600408514       -0.5644366425
 H         -0.0401270400       -5.5488321908        1.0923930520
 H         -0.7255605154       -3.9605234778       -1.4841776603
