  62
        -98.94193061
 C         -1.1971201383       -1.5630165944        0.5116039793
 C         -2.1359398746       -1.1856223577       -0.4771025785
 C         -3.1589525925       -0.2097552523       -0.0645727763
 C         -3.1567231564        0.2618068835        1.1937774099
 C         -4.1180062264        1.2319350544        1.8335857968
 C         -4.5161035276        2.4723775496        1.0222690938
 C         -3.4273407397        3.0224317378        0.0886825915
 H         -3.3251697282        4.0964465050        0.2584284784
 H         -2.4581516030        2.5724011139        0.3167450314
 C         -3.7508365465        2.8138818325       -1.3928668823
 H         -4.8037406194        3.0539145895       -1.5596655378
 H         -3.1552855227        3.5173833985       -1.9799789041
 C         -3.4623314361        1.4159844086       -1.9375621357
 H         -2.3808257174        1.2526964334       -1.9683346770
 H         -3.8227251545        1.3747451377       -2.9685512003
 C         -4.0889707840        0.2548668597       -1.1473839275
 H         -5.0661668652        0.5256802256       -0.7550099055
 H         -4.2068191220       -0.5913490769       -1.8296795476
 H         -5.4062987136        2.2527406129        0.4339735598
 H         -4.7975054079        3.2423342467        1.7429018355
 H         -5.0220737213        0.6827146443        2.1132597927
 H         -3.6296329371        1.5446492096        2.7597806377
 O         -2.2395509525       -0.1397593053        2.1187589913
 C         -1.2213055931       -1.0189082122        1.7932730121
 O         -0.4117187494       -1.2356030642        2.7197214471
 H          0.4148840665        0.1191219352       -0.1958492264
 C          0.9531465183       -0.4709460342       -0.9203526050
 C          0.8093188498       -1.8504798212       -0.9210952094
 C          1.4898316146       -2.5830820997       -1.8862668556
 C          2.2766421112       -1.9385567704       -2.8255607944
 C          2.4187313815       -0.5622120850       -2.8164421855
 C          1.7447216611        0.1786067550       -1.8525940941
 N          1.8412010005        1.5768478961       -1.7989529403
 S          1.8029624384        2.3577159590       -0.3210885592
 O          0.4719581466        2.3402820015        0.2315967147
 O          2.3511107176        3.6678211328       -0.6015090392
 C          2.9438595288        1.4394147024        0.6977710869
 C          2.4967699932        0.6152178815        1.7093968743
 C          3.4236623720       -0.1225263675        2.4303474575
 C          4.7730843684       -0.0237658433        2.1319291448
 C          5.2085193456        0.8169451571        1.1181258257
 C          4.2873837993        1.5524922925        0.3920752388
 H          4.5860810708        2.2261414200       -0.3945789846
 H          6.2593619987        0.8981398231        0.8918415508
 H          5.4877746136       -0.6031471078        2.6947640165
 H          3.0728452246       -0.7724653829        3.2163681983
 H          1.4425625863        0.5478513150        1.9296668460
 H          2.5090210149        1.9896562822       -2.4326613346
 H          3.0322936315       -0.0644129402       -3.5512634799
 H          2.7927623843       -2.5183797768       -3.5755738395
 H          1.3964778110       -3.6566163310       -1.9078374460
 C         -0.0473253145       -2.4839060547        0.1514709402
 H          0.5677034303       -2.5716718412        1.0603993011
 C         -0.5552547535       -3.8601996496       -0.2273772716
 C          0.2497046073       -5.0821611705        0.0957767147
 C         -1.0044193851       -4.7874897036        0.8606509243
 H         -1.8750275719       -5.4021509469        0.6883021364
 H         -0.9141716566       -4.4354904501        1.8783936978
 H          0.2388298026       -5.9055569919       -0.6024327614
 H          1.1927264623       -4.9426374576        0.6025064491
 H         -1.1300560605       -3.8507326460       -1.1459428326
 O         -2.1236368653       -1.6379832554       -1.6514967686
