  62
        -98.93500335
 C         -1.3526622001       -1.0075246192       -0.3703222409
 C         -2.7053941702       -1.4072983489       -0.5099542812
 C         -3.7107288300       -0.3372009288       -0.4559367002
 C         -3.3162403199        0.9340109510       -0.2638028491
 C         -4.1923811297        2.1590278411       -0.2523208379
 C         -5.2189481597        2.2562453701        0.8923447822
 C         -6.6100551897        1.7140527906        0.5418518118
 H         -7.3640040496        2.3741001903        0.9757518424
 H         -6.7420027398        1.7576255216       -0.5400328382
 C         -6.9187047699        0.2980106202        1.0374454605
 H         -7.1522536198        0.3363291793        2.1039827905
 H         -7.8140512700       -0.0506297492        0.5180679502
 C         -5.8049563300       -0.7323520497        0.8498750495
 H         -6.2172220401       -1.7217131499        1.0584545286
 H         -5.0198693400       -0.5633411605        1.5907919896
 C         -5.1560535401       -0.7318227586       -0.5479103905
 H         -5.1790690302       -1.7390834782       -0.9690168614
 H         -5.6937741900       -0.0658700979       -1.2215117399
 H         -4.8263525697        1.7561801393        1.7772701117
 H         -5.3191824595        3.3148744199        1.1371526732
 H         -3.5054654396        3.0050388409       -0.1861457172
 H         -4.7129169898        2.2252389320       -1.2105164979
 O         -2.0107394898        1.2710609606       -0.0890077089
 C         -0.9970162699        0.3188817305       -0.1162729498
 O          0.1336828001        0.7874748702        0.0966739606
 O         -3.0582118803       -2.6052505687       -0.6799955423
 C         -0.2857487602       -2.0844106992       -0.4559746320
 C          0.7296918298       -1.9051126404        0.6424187481
 C          0.3478167399       -2.1455530615        1.9594804079
 C          1.2393815699       -1.9595599026        2.9981258281
 C          2.5278322100       -1.5230132325        2.7455190484
 C          2.9191299999       -1.2826601813        1.4337517686
 C          2.0256402899       -1.4835296703        0.3914277885
 H          2.3513446898       -1.2832876294       -0.6147500814
 N          4.2240029400       -0.8582543712        1.1513247789
 S          4.5836015600        0.1014369899       -0.1630559002
 O          4.4942172599       -0.6685035390       -1.3794657809
 O          5.9003101901        0.6229808095        0.1453749302
 C          3.4191531402        1.4505567301       -0.1911028089
 C          3.2078581203        2.1705666690        0.9664093417
 C          2.3435385605        3.2511386892        0.9331779627
 C          1.7138432605        3.5962263903       -0.2515359769
 C          1.9408627703        2.8661824314       -1.4058287176
 C          2.8006260902        1.7813205012       -1.3772082086
 H          2.9939093201        1.1790793020       -2.2508025492
 H          1.4420723503        3.1299431622       -2.3254921773
 H          1.0334408806        4.4332951304       -0.2733335261
 H          2.1563253506        3.8166681584        1.8322357233
 H          3.7126492403        1.8831300482        1.8747351114
 H          4.7862269200       -0.6237298320        1.9554380991
 H          3.2249362500       -1.3691257033        3.5551140385
 H          0.9285907000       -2.1485139234        4.0147012179
 H         -0.6640047902       -2.4719521916        2.1586235977
 H         -0.8272969604       -3.0277092193       -0.2744741428
 C          0.3530008197       -2.2056831281       -1.8317443221
 C         -0.4383241804       -1.9505624568       -3.0782524818
 C          0.6597818298       -1.0115277073       -2.6828119610
 H          1.5769612498       -1.0183262269       -3.2545416011
 H          0.3939285299       -0.0398217476       -2.2958515802
 H         -0.2829448205       -2.5994043861       -3.9270536524
 H         -1.4598358003       -1.6191031668       -2.9622058815
 H          1.0665304696       -3.0236156581       -1.8744340829
