  62
        -98.94073565
 C         -2.0196654099       -1.4715895799        0.4040311397
 C         -2.3144086198       -0.8645669297       -0.8416453202
 C         -3.1552539896        0.3405829105       -0.7811078500
 C         -3.6042988895        0.7941215404        0.4023477301
 C         -4.4728560792        2.0033431805        0.6198230604
 C         -3.6922726190        3.3226061204        0.6983522405
 C         -3.1245069090        3.8220613105       -0.6309787195
 H         -3.9216303790        3.8565064307       -1.3742953094
 H         -2.7847647688        4.8472992004       -0.4712412994
 C         -1.9513954292        2.9915006303       -1.1707284897
 H         -1.5490422492        2.3670377301       -0.3699068098
 H         -1.1494049391        3.6591573402       -1.4951223597
 C         -2.3048045894        2.0936094305       -2.3562038098
 H         -2.6094542794        2.7081299107       -3.2062526797
 H         -1.4075633496        1.5414267404       -2.6490663999
 C         -3.4147373596        1.0748951807       -2.0627083598
 H         -4.3824390795        1.5745003409       -2.0266654797
 H         -3.4295737998        0.3407320108       -2.8719951899
 H         -2.8827601989        3.2049597301        1.4222801604
 H         -4.3746758088        4.0829273705        1.0847417506
 H         -5.2199818593        2.0670219508       -0.1715835096
 H         -4.9862510792        1.8499950605        1.5713951804
 O         -3.3177290895        0.1712452202        1.5754232300
 C         -2.5124258097       -0.9539536699        1.6067931798
 O         -2.3158991297       -1.4064878101        2.7515732198
 H          0.2188634400       -1.3114544301       -1.3078781004
 C          0.8490628900       -1.5942437103       -0.4775521405
 C          0.3061983200       -2.3375251103        0.5624036094
 C          1.1273352500       -2.6917543406        1.6257997193
 C          2.4610769501       -2.3197464509        1.6401921093
 C          3.0010943801       -1.5878233608        0.5980790093
 C          2.1850433501       -1.2218233005       -0.4653194806
 N          2.7164130402       -0.4701482105       -1.5275532605
 S          3.6775229104        0.8443884893       -1.1501193704
 O          3.5456148805        1.7494777995       -2.2693611103
 O          5.0157393504        0.3922826690       -0.8607859606
 C          2.9578711207        1.5596965592        0.3180235597
 C          3.6902397808        1.6122821789        1.4863452497
 C          3.1086014110        2.1588102789        2.6190277098
 C          1.8106921111        2.6416988091        2.5632824000
 C          1.0894308109        2.5854822994        1.3805403700
 C          1.6643293108        2.0373132295        0.2458753399
 H          1.1270480107        1.9823342597       -0.6881002801
 H          0.0807432710        2.9652957096        1.3390641002
 H          1.3559201512        3.0657105191        3.4446241901
 H          3.6670003110        2.2055549487        3.5399477698
 H          4.6972318307        1.2281509688        1.4844706996
 H          2.0371628202       -0.2393314303       -2.2377678904
 H          4.0394774302       -1.2987675510        0.5878778293
 H          3.0877252101       -2.6031885411        2.4717803192
 H          0.7103884300       -3.2512264706        2.4502731593
 C         -1.1529366001       -2.7145510301        0.5424185295
 H         -1.4026128101       -3.1260688901        1.5324068194
 C         -1.4883705404       -3.7843851299       -0.4897352306
 C         -0.5368680405       -4.2590776199       -1.5432031208
 C         -0.8625545006       -5.1435132500       -0.3798982309
 H         -1.4788479308       -6.0147028798       -0.5424094809
 H         -0.0993628106       -5.2756665502        0.3724835291
 H          0.4470579896       -3.8193626901       -1.5874014908
 H         -0.9469260606       -4.5004502997       -2.5122460708
 H         -2.5355914304       -3.7567147196       -0.7731349305
 O         -1.9062788100       -1.2816612796       -1.9570158103
