  62
        -98.93841435
 C          1.7031456141        1.4924472573        0.3311001045
 C          1.5976072287        0.3233926714       -0.4597604777
 C          2.5945842691       -0.7269641049       -0.1912599741
 C          3.5036791948       -0.5410721044        0.7826755769
 C          4.6320365756       -1.4759379227        1.1134538001
 C          5.7697913142       -1.3066275139        0.0860130284
 C          6.0174751222       -2.5347029068       -0.7905663963
 H          6.6764655945       -2.2267273906       -1.6052372374
 H          6.5491683743       -3.2874730875       -0.2047281401
 C          4.7697340806       -3.1980265966       -1.3820616391
 H          4.2974691352       -3.8290649961       -0.6277337679
 H          5.1116405263       -3.8659609915       -2.1755745934
 C          3.7130576472       -2.2479729350       -1.9605573100
 H          4.1670112458       -1.3009914388       -2.2535210956
 H          3.3105617537       -2.7013626436       -2.8687850075
 C          2.5179878668       -1.9751174427       -1.0271614418
 H          1.6205936466       -1.8491227300       -1.6405426316
 H          2.3616324404       -2.8431413556       -0.3804811675
 H          5.5351362856       -0.4479318519       -0.5467104012
 H          6.6979323855       -1.0665328019        0.6068352537
 H          4.2728073087       -2.5024325474        1.1211460167
 H          4.9832588182       -1.2206551360        2.1133441692
 O          3.5500942351        0.5826661125        1.5435831421
 C          2.6611277982        1.6226794914        1.3392732485
 O          2.8206005183        2.5936885378        2.1047748898
 O          0.7259731058        0.1551997314       -1.3528470389
 C          0.7460079271        2.6593216869        0.1406946629
 C         -0.6422512110        2.1886515168        0.4957075854
 C         -0.9923570267        2.0558254665        1.8368545958
 C         -2.2276052259        1.5515773947        2.1982247720
 C         -3.1304993503        1.1435471543        1.2308501456
 C         -2.7812175531        1.2566417875       -0.1077876982
 C         -1.5550031917        1.7988195609       -0.4699794750
 H         -1.3007852513        1.8756542533       -1.5146567715
 N         -3.6628986583        0.7933796308       -1.0987744427
 S         -4.4281383245       -0.6685519798       -0.8311215839
 O         -4.6412478862       -1.2343447401       -2.1457587433
 O         -5.6236074682       -0.4457967532       -0.0537541806
 C         -3.3031193475       -1.6898786867        0.1112596170
 C         -3.8153680054       -2.4185071252        1.1668199435
 C         -2.9684711552       -3.2344055617        1.8988836416
 C         -1.6240950019       -3.3036408474        1.5683319774
 C         -1.1252133147       -2.5653882687        0.5070041823
 C         -1.9681572367       -1.7539596233       -0.2356259966
 H         -1.5753427246       -1.1692456982       -1.0525494862
 H         -0.0783423546       -2.6018853752        0.2511698670
 H         -0.9602296931       -3.9325240909        2.1404413040
 H         -3.3569190409       -3.8080203374        2.7249603289
 H         -4.8642571073       -2.3239388395        1.3972230920
 H         -3.2776743001        0.8321827424       -2.0314645239
 H         -4.0936199777        0.7358250742        1.4933636394
 H         -2.4882717838        1.4636335983        3.2418829531
 H         -0.2749220481        2.3444910924        2.5926903584
 H          1.0487908392        3.4202137325        0.8718193615
 C          0.8627434726        3.2463876137       -1.2505135861
 C          0.2801876769        4.5981967413       -1.5301838433
 C          1.7670153116        4.4190236793       -1.4756633337
 H          2.3270269526        4.4679594502       -2.3976332168
 H          2.2997988912        4.8105971542       -0.6213764479
 H         -0.1814881713        4.7747091487       -2.4897809146
 H         -0.1991488769        5.1121394145       -0.7107789898
 H          0.8196499039        2.5024180656       -2.0366003933
