  62
        -98.94267997
 C         -2.1423855116       -0.8767135873        0.1644562450
 C         -2.6712161214       -0.0083381152        1.1477745231
 C         -3.0556541761        1.3307671989        0.6834875722
 C         -2.8452737982        1.6653912487       -0.6029593064
 C         -3.2296028929        2.9785059083       -1.2194801107
 C         -4.6435582700        2.9194111352       -1.8145818131
 C         -5.6905867655        2.3417262307       -0.8620511890
 H         -6.6527283171        2.3774054664       -1.3773715779
 H         -5.4625480323        1.2892039783       -0.6789046998
 C         -5.8019269353        3.0773404955        0.4806890843
 H         -5.3469526118        4.0651653294        0.4002865395
 H         -6.8588002393        3.2243979288        0.7123012486
 C         -5.1867182021        2.3312235210        1.6659782900
 H         -5.5712535724        1.3086724897        1.6943943012
 H         -5.5086891679        2.8281846882        2.5848710191
 C         -3.6542782452        2.2695101734        1.6933252535
 H         -3.2421455647        3.2740833775        1.5773917097
 H         -3.3541726284        1.8857636041        2.6729806053
 H         -4.9348693001        3.9285776545       -2.1112548806
 H         -4.6144965605        2.2961684469       -2.7113085141
 H         -3.1737881958        3.7593115759       -0.4633128338
 H         -2.5163268405        3.2048663128       -2.0141209427
 O         -2.2953199573        0.8180039832       -1.5103785491
 C         -1.9318389649       -0.4721758214       -1.1542924228
 O         -1.4444678516       -1.1446753538       -2.0827542115
 H          0.2099671043       -0.5596464351        1.1845701979
 C          0.6167847418       -1.4312020746        0.6841371429
 C         -0.2425984253       -2.4513610025        0.2948776543
 C          0.2992464956       -3.5596800436       -0.3418708773
 C          1.6571874897       -3.6246852711       -0.6059501745
 C          2.5026724444       -2.5935271106       -0.2406475946
 C          1.9727157036       -1.4896130720        0.4119345343
 N          2.8302343231       -0.4198447511        0.7741832378
 S          3.2887028161        0.5855970586       -0.5097840874
 O          2.4132048618        1.7406520798       -0.5417625965
 O          3.3835197999       -0.1956146353       -1.7154595067
 C          4.9173220874        1.0861284666        0.0146713974
 C          5.9646555916        0.2055906885       -0.1744435548
 C          7.2299518512        0.5649497342        0.2606093833
 C          7.4254126591        1.7919561077        0.8772574743
 C          6.3643838767        2.6653923150        1.0599888734
 C          5.0959547672        2.3106145630        0.6274736105
 H          4.2437823032        2.9611085091        0.7412763415
 H          6.5189503516        3.6197495285        1.5372564562
 H          8.4111451034        2.0701016825        1.2153417659
 H          8.0575882679       -0.1110689074        0.1183007973
 H          5.7669535373       -0.7322082622       -0.6666248780
 H          2.3988153377        0.1745242815        1.4709463873
 H          3.5554266777       -2.6222005195       -0.4673648231
 H          2.0594944629       -4.4883042059       -1.1133356873
 H         -0.3450518235       -4.3674991884       -0.6484102121
 C         -1.7163497877       -2.2770401171        0.5685472598
 H         -1.8763726531       -2.3309501326        1.6559688591
 C         -2.5882819858       -3.3144116224       -0.1062905969
 C         -2.8482784181       -4.6327765506        0.5574204027
 C         -3.9388776154       -3.6089935887        0.4723010583
 H         -4.7622899590       -3.7833159164       -0.2038847826
 H         -4.2175384686       -3.0797712553        1.3719651126
 H         -2.9262124081       -5.5141429961       -0.0609067018
 H         -2.3914855034       -4.8062645343        1.5198522791
 H         -2.5007507670       -3.2892532860       -1.1868697530
 O         -2.8059475119       -0.3354154662        2.3586129155
