  62
        -98.93787518
 C         -2.0569727037       -1.2312947852       -0.1162713183
 C         -2.5178011874       -0.1052947751       -0.8344907825
 C         -3.9319795081        0.2765544176       -0.6363685434
 C         -4.6931272037       -0.4575589713        0.1962166520
 C         -6.1345070130       -0.2448745502        0.5759417692
 C         -6.3189996858        0.9042310336        1.5799351583
 C         -5.5160390964        2.1642209191        1.2676093928
 H         -5.6482241734        2.8577656306        2.1023170097
 H         -4.4548010084        1.9122119704        1.2223832947
 C         -5.9199014708        2.8925297943       -0.0121399040
 H         -6.9732754286        3.1742790321        0.0532164009
 H         -5.3326272290        3.8132485570       -0.0595605334
 C         -5.7024678671        2.1241647926       -1.3175361093
 H         -5.7946830567        2.8435320970       -2.1366667194
 H         -6.4814034949        1.3820457459       -1.4709320837
 C         -4.3264127930        1.4805560411       -1.4575397366
 H         -3.5554043948        2.2373431111       -1.2716357481
 H         -4.1875997959        1.1812215765       -2.5036043776
 H         -6.0064648923        0.5463862366        2.5639849519
 H         -7.3810117745        1.1498329473        1.6321724547
 H         -6.7354479404       -0.0823924155       -0.3137677776
 H         -6.4751841085       -1.1717620587        1.0427015159
 O         -4.2006818046       -1.5346959690        0.8730546867
 C         -2.8894337862       -1.9438455000        0.7468534096
 O         -2.5864104524       -2.9369983371        1.4386290180
 O         -1.7910633860        0.5640767813       -1.6156680932
 C         -0.6182360025       -1.7015209629       -0.2495549025
 C          0.3044221733       -0.6190261796        0.2539092312
 C          0.2822816759       -0.3048556589        1.6105262049
 C          1.0970026463        0.6871319008        2.1215220465
 C          1.9507884559        1.3910275701        1.2896626108
 C          1.9779623353        1.0873274482       -0.0641706120
 C          1.1676669317        0.0800702391       -0.5737272372
 H          1.1975145092       -0.1376985986       -1.6293590137
 N          2.8496023801        1.7951634069       -0.9120820203
 S          4.4578669740        1.8742890432       -0.4545279696
 O          4.6223698406        2.8715842906        0.5729281162
 O          5.1942513373        2.0971896855       -1.6784986510
 C          4.8094317614        0.2547888603        0.2058968721
 C          5.0109128712        0.0891846204        1.5606973335
 C          5.2174981428       -1.1888284660        2.0553707030
 C          5.2138113018       -2.2730201321        1.1918161037
 C          5.0126476057       -2.0898038128       -0.1679676340
 C          4.8054010047       -0.8148663179       -0.6677349177
 H          4.6534327234       -0.6347183158       -1.7198137549
 H          5.0122222372       -2.9349480839       -0.8376554970
 H          5.3698439342       -3.2673676749        1.5796411052
 H          5.3758825246       -1.3347777932        3.1117752270
 H          5.0061361113        0.9585414290        2.1974708815
 H          2.7612996551        1.5422037422       -1.8853630014
 H          2.5890278803        2.1737555792        1.6665402331
 H          1.0666993230        0.9183254725        3.1755109011
 H         -0.3906117399       -0.8508025315        2.2579901425
 H         -0.5235886738       -2.5647532173        0.4236578260
 C         -0.3260658853       -2.1542464275       -1.6643395372
 C          0.8441549036       -3.0527312683       -1.9270978324
 C         -0.5514720714       -3.5894813102       -2.0285568254
 H         -0.9488259229       -3.8159976764       -3.0066917288
 H         -0.9063303226       -4.2503750930       -1.2511958533
 H          1.4063658026       -2.9165507031       -2.8385095185
 H          1.4413520272       -3.3509241914       -1.0788381716
 H         -0.5783189333       -1.4081999312       -2.4086466668
