  62
        -98.93719699
 C          0.7635533233        1.4592463318       -0.4751280562
 C          1.9441736546        1.6886412260        0.2747653405
 C          2.9996227184        0.6628471821        0.2017999796
 C          2.8016922650       -0.4148639898       -0.5777903000
 C          3.7211929036       -1.5857130654       -0.8140022881
 C          5.1976218588       -1.2495374617       -1.0780314424
 C          6.1257652962       -1.6648160872        0.0645814167
 H          5.7999260009       -2.6360120531        0.4424878280
 H          7.1349196629       -1.7927901232       -0.3333772047
 C          6.2098324010       -0.6734830862        1.2241707089
 H          6.7815775588       -1.1495439468        2.0243664026
 H          6.7715690253        0.2073672747        0.9054140488
 C          4.8667324693       -0.2083740585        1.7915878798
 H          5.0406926152        0.1377883563        2.8126747628
 H          4.1671874244       -1.0405399264        1.8530148375
 C          4.2356377062        0.9529921391        1.0094492797
 H          3.9305165790        1.7406759480        1.7053227483
 H          4.9831208807        1.4091764961        0.3533418270
 H          5.3049455070       -0.1856857363       -1.2846171462
 H          5.5082589228       -1.7850052855       -1.9766435312
 H          3.2991146132       -2.1099763659       -1.6736062567
 H          3.6467199836       -2.2641208776        0.0384017239
 O          1.6533604364       -0.5934395895       -1.2876588071
 C          0.6096409262        0.3161410735       -1.2585824416
 O         -0.3563198536       -0.0147042462       -1.9726616913
 O          2.1137783898        2.7192261686        0.9810361967
 C         -0.3312289271        2.5085381606       -0.3672725929
 C         -1.3664104400        2.0529777261        0.6326750477
 C         -1.4275907381        2.6404898087        1.8918676790
 C         -2.3484531863        2.2064643911        2.8282185444
 C         -3.2164778530        1.1722306620        2.5303083896
 C         -3.1591333300        0.5739366455        1.2751134146
 C         -2.2437219636        1.0194995376        0.3322809313
 H         -2.2074294432        0.5427521850       -0.6340746451
 N         -4.0247771428       -0.4790676643        0.9594455331
 S         -3.7043746385       -1.5942156356       -0.2327909444
 O         -3.9058138404       -1.0090296361       -1.5338640213
 O         -4.5884127294       -2.6981140735        0.0896273061
 C         -2.0221376647       -2.1558826534       -0.0327776893
 C         -1.3902914923       -2.6784880078       -1.1420956483
 C         -0.1207483612       -3.2145127399       -1.0040431130
 C          0.4969169982       -3.2117336037        0.2356660625
 C         -0.1454035349       -2.6739042929        1.3391103961
 C         -1.4209913742       -2.1479464479        1.2093731877
 H         -1.9347489172       -1.7290983114        2.0595073985
 H          0.3414177471       -2.6615045819        2.3015154072
 H          1.4860777397       -3.6291118399        0.3400893645
 H          0.3841548625       -3.6203622310       -1.8659324171
 H         -1.8962320172       -2.6411856045       -2.0932161759
 H         -4.5545218874       -0.8662428489        1.7253701813
 H         -3.9331587719        0.8260810481        3.2591790656
 H         -2.3869419821        2.6725948293        3.8009192001
 H         -0.7343577180        3.4320150027        2.1358288161
 H          0.1645174199        3.3971360039        0.0468388944
 C         -0.9538644249        2.8869145074       -1.6949010664
 C         -1.6435615802        4.2116782367       -1.8170330143
 C         -0.3332724919        3.9819390254       -2.5073387543
 H         -0.3238932754        3.8827118516       -3.5824210311
 H          0.5456697896        4.4654367709       -2.1060912041
 H         -2.5387183988        4.2712528637       -2.4169742589
 H         -1.6521261368        4.8534797575       -0.9489180375
 H         -1.3760140272        2.0494280035       -2.2349030506
