  62
        -98.94313202
 C         -0.8555486293       -1.3681285579        0.0209995228
 C         -1.8579242208       -1.1340678018        0.9873973651
 C         -2.6631612153        0.0870228041        0.8187259556
 C         -2.4039292225        0.9112344774       -0.2134448057
 C         -3.0266995280        2.2370591696       -0.5999751190
 C         -4.3904411604        2.6519352298       -0.0516962436
 C         -5.5587313229        1.7724525667       -0.4933452104
 H         -5.7070778773        1.9010490687       -1.5683086907
 H         -6.4593415194        2.1282861297        0.0119809528
 C         -5.3971641469        0.2784890732       -0.2234280292
 H         -4.5824789244       -0.1193191195       -0.8318025000
 H         -6.3142706082       -0.2206112017       -0.5478030978
 C         -5.1540957008       -0.1000492023        1.2368653751
 H         -5.2414593835       -1.1871928230        1.3121325203
 H         -5.9290798027        0.3413965285        1.8663455635
 C         -3.7764946153        0.2902556190        1.8047695606
 H         -3.5603821626       -0.3669717399        2.6523969398
 H         -3.7729638901        1.3115846942        2.1797757743
 H         -4.5790039945        3.6626536736       -0.4243767087
 H         -4.3574157213        2.7185715759        1.0319759297
 H         -2.2979722721        3.0042830132       -0.3149952957
 H         -3.0684204797        2.2343413756       -1.6935075978
 O         -1.4074940389        0.6543635319       -1.1096466991
 C         -0.6117487983       -0.4757180068       -1.0212357526
 O          0.2526925634       -0.5685661405       -1.9115701675
 H          1.1249720103       -0.4529240479        1.2676219212
 C          1.8658204825       -1.0979684742        0.8182414723
 C          1.4700481113       -2.2634398009        0.1756785488
 C          2.4503120992       -3.0817689691       -0.3740411934
 C          3.7861601133       -2.7308183726       -0.2911712057
 C          4.1729814572       -1.5555735491        0.3261032642
 C          3.2004196157       -0.7326434638        0.8828008650
 N          3.5520658030        0.4698828493        1.5172082010
 S          2.5788232298        1.8147667382        1.3858914273
 O          3.4460629119        2.9119832552        1.7676554729
 O          1.3896531463        1.6620065120        2.1891462013
 C          2.1348534098        2.0105178668       -0.3308048321
 C          0.9424479365        2.6453828757       -0.6090658303
 C          0.5967614855        2.8847097488       -1.9282874537
 C          1.4453905875        2.4798835716       -2.9450028870
 C          2.6400799202        1.8441233465       -2.6508304172
 C          2.9960888728        1.6125462588       -1.3324811669
 H          3.9211805970        1.1168691388       -1.0878987218
 H          3.2939999131        1.5207766930       -3.4446443823
 H          1.1686764201        2.6536354935       -3.9729173462
 H         -0.3374335411        3.3717580806       -2.1580163390
 H          0.3034066104        2.9233821000        0.2153032918
 H          4.5305741563        0.7137965779        1.4702867270
 H          5.2140157745       -1.2756903230        0.3810271720
 H          4.5360457234       -3.3761113859       -0.7224511477
 H          2.1662449907       -3.9955681888       -0.8696669810
 C          0.0028846174       -2.6121089711        0.1275019209
 H         -0.2702906793       -3.0775227317        1.0872953137
 C         -0.3393748882       -3.5745146116       -0.9938455697
 C         -0.3069105029       -5.0560699180       -0.7688779099
 C         -1.6198154542       -4.3486991537       -0.9120840664
 H         -2.1936394797       -4.4960498258       -1.8146982980
 H         -2.2254117698       -4.2070478840       -0.0286043452
 H         -0.0293324642       -5.4085734346        0.2131154042
 H          0.0191660556       -5.6933091405       -1.5771754197
 H         -0.0450850048       -3.1953679096       -1.9662490842
 O         -2.0718929009       -1.9115517024        1.9585980144
