  62
        -98.94121488
 C         -1.6246512912       -0.5203847760        0.9438513313
 C         -2.8611226993       -1.0648760045        0.5194650585
 C         -3.9752330880       -0.1103755081        0.4006399130
 C         -3.7724094196        1.1893771831        0.6790620393
 C         -4.8032311493        2.2708525280        0.5379386369
 C         -4.7549472995        2.9069539471       -0.8583863588
 C         -4.7498653864        1.8910380689       -2.0007320717
 H         -4.7465806874        2.4540916973       -2.9366030709
 H         -3.8190128582        1.3200394207       -1.9664274408
 C         -5.9392367693        0.9206201847       -1.9927847916
 H         -6.7396496900        1.3200875567       -1.3688375821
 H         -6.3311164681        0.8383934781       -3.0088271409
 C         -5.5973130471       -0.4972174833       -1.5312284624
 H         -4.7341811949       -0.8667169719       -2.0907087371
 H         -6.4442735529       -1.1460171731       -1.7702141050
 C         -5.3056964032       -0.6584166738       -0.0340056660
 H         -6.1146245099       -0.2132488916        0.5487348785
 H         -5.2744416265       -1.7299273542        0.1838313491
 H         -5.6141133152        3.5718462287       -0.9643630762
 H         -3.8469179732        3.5096155051       -0.9330274844
 H         -5.7900835282        1.8513419630        0.7234921038
 H         -4.5991169937        3.0397325322        1.2849501748
 O         -2.5714703519        1.6776806802        1.0804977309
 C         -1.4754966896        0.8441184762        1.2149783277
 O         -0.4360698875        1.4249905380        1.5854652942
 H          1.9634092211       -0.3028760330        0.2861727890
 C          1.5325195902       -0.9497382196       -0.4624702432
 C          0.3186508951       -1.5720069182       -0.2097758807
 C         -0.2391447515       -2.3818354891       -1.1935040065
 C          0.4165851474       -2.5669514091       -2.3966511311
 C          1.6406805723       -1.9667793660       -2.6350447010
 C          2.2025268947       -1.1493376306       -1.6611793706
 N          3.4277328591       -0.5086127194       -1.8831037433
 S          4.4987401485       -0.2279792149       -0.6312331393
 O          5.7740980566       -0.0429473670       -1.2903536095
 O          4.4451163232       -1.2746034237        0.3624335232
 C          3.9771001695        1.3246212194        0.0636480499
 C          3.8308236087        2.4032934108       -0.7855223423
 C          3.4405068513        3.6223266250       -0.2562857587
 C          3.2059280096        3.7419440933        1.1051438904
 C          3.3615818329        2.6508215740        1.9450054313
 C          3.7521631139        1.4290220292        1.4212986227
 H          3.8786175468        0.5538246271        2.0396656346
 H          3.1731825876        2.7442707474        3.0024472984
 H          2.8971074377        4.6903760132        1.5155444306
 H          3.3167946866        4.4745454287       -0.9051631411
 H          4.0243610300        2.2721773515       -1.8372244960
 H          3.8953296077       -0.7546172576       -2.7428232534
 H          2.1569302561       -2.1245739631       -3.5699086461
 H         -0.0250623166       -3.1953215713       -3.1555223214
 H         -1.1944185677       -2.8490098023       -1.0108955359
 C         -0.3631540236       -1.3512018538        1.1193622028
 H          0.3101625054       -0.7381453326        1.7339213990
 C         -0.5929013645       -2.6665422175        1.8378087276
 C          0.5920092056       -3.3856699078        2.4066776078
 C         -0.4009224545       -2.7344025728        3.3213115223
 H         -1.0616604640       -3.3644596992        3.8977391581
 H         -0.1072006901       -1.8281372054        3.8311475595
 H          1.5616409015       -2.9232908856        2.2898590581
 H          0.6137049070       -4.4635328054        2.3554100441
 H         -1.3880835059       -3.2625273624        1.4110260016
 O         -3.0536557895       -2.2799219866        0.2492199098
