  62
        -98.93649368
 C          1.9748959756        0.0968782297        0.2492073733
 C          3.1473815977        0.8410657698       -0.0343594242
 C          4.3006333535        0.0540976327       -0.4999758062
 C          4.1871250771       -1.2729853171       -0.6807603668
 C          5.2659123856       -2.1973871113       -1.1766038849
 C          6.2315628377       -2.6741873213       -0.0829761373
 C          7.2135546950       -1.6176364612        0.4250362799
 H          7.9658666073       -2.1393509275        1.0200004056
 H          7.7273104950       -1.1629790773       -0.4225591162
 C          6.5740709762       -0.5221974323        1.2897030806
 H          7.1855077283       -0.3571978091        2.1798056140
 H          5.5924932708       -0.8564555759        1.6338571339
 C          6.4191793440        0.8279647867        0.5895990747
 H          7.4056336704        1.2370587599        0.3601748321
 H          5.9212944201        1.5162239870        1.2775198120
 C          5.5981771950        0.7764458430       -0.7052999086
 H          5.3640851839        1.8013993037       -1.0033555229
 H          6.1766098262        0.3041418779       -1.4989195165
 H          5.6468614282       -3.0607816983        0.7549643373
 H          6.8077861426       -3.5047559157       -0.4971579450
 H          4.7589644718       -3.0706093248       -1.5927342560
 H          5.8288462086       -1.7100136847       -1.9731649764
 O          3.0278790441       -1.9439327021       -0.4442175214
 C          1.9113903843       -1.2831886147        0.0381008611
 O          0.9274116608       -2.0242183519        0.2390351253
 O          3.2494296863        2.0884597986        0.0801384238
 C          0.6956349459        0.7235067271        0.7765138296
 C         -0.2123373445        1.1459804619       -0.3501362845
 C          0.2738152822        1.8397313551       -1.4526103535
 C         -0.5849795767        2.2260286398       -2.4654358418
 C         -1.9361155832        1.9398234812       -2.3918094882
 C         -2.4341980023        1.2451993655       -1.2935217386
 C         -1.5652059384        0.8443898936       -0.2877785798
 H         -1.9476978130        0.3139698904        0.5702130579
 N         -3.7966741478        0.9325865194       -1.2310463539
 S         -4.7112443738        0.7175815453        0.1486647322
 O         -5.9700843063        1.3814647184       -0.1123665384
 O         -3.9973429179        1.1456271762        1.3267377849
 C         -5.0011152527       -1.0419548725        0.2084006784
 C         -6.2849937875       -1.4849063874        0.4625015900
 C         -6.5292765655       -2.8473457224        0.5260280602
 C         -5.4888429712       -3.7435540522        0.3355298461
 C         -4.2060642332       -3.2847310082        0.0784608491
 C         -3.9554179302       -1.9225533286        0.0135320844
 H         -2.9629697025       -1.5522028684       -0.1889342746
 H         -3.3931927615       -3.9776774350       -0.0714893562
 H         -5.6767040208       -4.8044848894        0.3851918343
 H         -7.5271768204       -3.2046051372        0.7231693822
 H         -7.0651275217       -0.7533846066        0.5968115009
 H         -4.3549206713        1.3093352272       -1.9815622731
 H         -2.6044889148        2.2485343903       -3.1811493898
 H         -0.1994488751        2.7644842006       -3.3181702570
 H          1.3240793964        2.0838897410       -1.5008010771
 H          0.1809744999       -0.0831278545        1.3239205701
 C          0.9430224527        1.8492139652        1.7720554124
 C          0.6549894503        3.2875920483        1.4788380610
 C         -0.2181649439        2.5322809941        2.4327371990
 H         -0.1506589136        2.7583028545        3.4864924639
 H         -1.2134396754        2.2660276133        2.1058732978
 H          1.3402135927        4.0243434724        1.8693279415
 H          0.2532832036        3.5401127797        0.5100734602
 H          1.8075973054        1.6521841008        2.3978771798
