  62
        -98.94687191
 C         -1.1598369734       -1.1533914615       -0.1738992904
 C         -2.0315822495       -0.8456073544        0.9048625995
 C         -2.8557239811        0.3596807189        0.7588208777
 C         -2.7306502439        1.1062654538       -0.3530993461
 C         -3.5516785277        2.3229972564       -0.6666594983
 C         -4.8134590118        1.9508307218       -1.4579661059
 C         -5.6096567438        0.7990023898       -0.8445378923
 H         -6.4938798726        0.6468923934       -1.4673523520
 H         -5.0157594422       -0.1160317602       -0.9022136364
 C         -6.0428131747        1.0300453498        0.6100520234
 H         -7.0879052331        0.7312367850        0.7155274733
 H         -5.9853887165        2.0923562184        0.8501653702
 C         -5.2456103170        0.2320657108        1.6437505088
 H         -5.2260819837       -0.8221286915        1.3560579740
 H         -5.7686420798        0.2992936782        2.6014664838
 C         -3.8018584034        0.6952571842        1.8770148864
 H         -3.7905990061        1.7670478772        2.0851791287
 H         -3.4237434449        0.1692400718        2.7582763157
 H         -5.4486215229        2.8355152641       -1.5316056715
 H         -4.5164005600        1.6611124223       -2.4685135486
 H         -3.8300384330        2.8191390883        0.2612467055
 H         -2.9474202369        3.0038405161       -1.2679892719
 O         -1.8630406477        0.8030325718       -1.3478978531
 C         -1.0600988413       -0.3249810666       -1.2919080339
 O         -0.3252311019       -0.4530738519       -2.2926496037
 O         -2.1210560946       -1.5566693274        1.9404391074
 C         -0.3379722543       -2.4257969844       -0.0367214565
 C          1.0719444714       -2.1085176556        0.3976550691
 C          1.5440038158       -2.4956552900        1.6462289019
 C          2.8272915218       -2.1679507239        2.0503458315
 C          3.6618434373       -1.4370557225        1.2230111980
 C          3.1932800816       -1.0394713400       -0.0217378147
 C          1.9160217634       -1.3852275431       -0.4330564629
 H          1.5579709247       -1.0587227484       -1.3978947457
 N          4.0121490030       -0.2326462122       -0.8498450145
 S          4.1923366939        1.3324031806       -0.2756567451
 O          4.7234776412        2.1026316568       -1.3768329741
 O          4.9961341365        1.2908098559        0.9193903000
 C          2.5414406371        1.8796355544        0.1260011441
 C          2.0169905785        1.5776043837        1.3670593888
 C          0.7162302464        1.9574412752        1.6538127158
 C         -0.0303014137        2.6369432718        0.7042078915
 C          0.5087890271        2.9284608747       -0.5388192771
 C          1.8042491075        2.5387884283       -0.8363890068
 H          2.2584567896        2.7464415127       -1.7921869274
 H         -0.0781789888        3.4475757049       -1.2794877123
 H         -1.0407150472        2.9357925438        0.9347679198
 H          0.2859809101        1.7188825607        2.6134054221
 H          2.6314553563        1.0608445001        2.0859336405
 H          3.6628040817       -0.1847443885       -1.7980649606
 H          4.6531312070       -1.1452213594        1.5297884163
 H          3.1791106429       -2.4781726074        3.0224832849
 H          0.8904223191       -3.0429024881        2.3096731622
 H         -0.8179376562       -2.9896881838        0.7741709338
 C         -0.3468052874       -3.2835822645       -1.2870036584
 C         -0.0143872370       -4.7398229603       -1.1704905945
 C         -1.4209044664       -4.3127749547       -1.4630452557
 H         -1.8177024665       -4.4788292986       -2.4533758827
 H         -2.1563914950       -4.4080293343       -0.6774765261
 H          0.5580722680       -5.2020392067       -1.9599155735
 H          0.2032282525       -5.1259225632       -0.1862161083
 H         -0.0129243026       -2.7604139413       -2.1734673765
