  62
        -98.94133624
 C         -2.2533639258       -0.6795710650       -0.2822424398
 C         -3.4871992153       -0.9248633487        0.3710343330
 C         -4.2676745556        0.2612327228        0.7375042221
 C         -3.7715190510        1.4873597195        0.4913137197
 C         -4.4328615343        2.7947450520        0.8342077988
 C         -5.4605156155        3.2669392607       -0.2037577522
 C         -6.7727099770        2.4818803488       -0.2249534074
 H         -7.1826977500        2.4349377200        0.7843493801
 H         -7.4760825347        3.0509564705       -0.8360534932
 C         -6.6531789570        1.0641459108       -0.8012711098
 H         -5.7213816810        0.9776176089       -1.3648022746
 H         -7.4700726799        0.8866405104       -1.5042677741
 C         -6.7042130380       -0.0511085636        0.2429361369
 H         -6.5725543906       -1.0071789259       -0.2699537816
 H         -7.6849056057       -0.0590192196        0.7236598584
 C         -5.6282965621        0.0543877187        1.3316797585
 H         -5.8689128643        0.8626297855        2.0219804242
 H         -5.6080989047       -0.8863772194        1.8872440598
 H         -4.9985778694        3.2319495616       -1.1930813733
 H         -5.6904453162        4.3114496777        0.0188205929
 H         -3.6356798562        3.5389569904        0.8940910890
 H         -4.9097873380        2.7182910470        1.8118193164
 O         -2.5630532743        1.6821645955       -0.0996793370
 C         -1.7819171295        0.6124551501       -0.5152454654
 O         -0.7180573913        0.9496338980       -1.0701274403
 O         -3.9141318852       -2.0801985744        0.6349532188
 C         -1.4071442957       -1.8752784149       -0.6882766936
 C         -0.1691481645       -1.8832744105        0.1734330060
 C         -0.2672607213       -2.3306673215        1.4884261592
 C          0.8258795181       -2.2852970689        2.3323058307
 C          2.0387449226       -1.7884275719        1.8864613699
 C          2.1435688250       -1.3311277685        0.5803895506
 C          1.0470060172       -1.3906429766       -0.2710065750
 H          1.1376876600       -1.0176920411       -1.2788718573
 N          3.3730152441       -0.8260498461        0.1083248998
 S          4.1724636132        0.2877838487        1.0965842350
 O          4.8209145382       -0.4333374033        2.1638144532
 O          3.2704057828        1.3416262187        1.5070490630
 C          5.3970830445        0.9148731569       -0.0355893654
 C          5.0792534212        1.9980537736       -0.8330494815
 C          6.0225412178        2.4657143332       -1.7344718345
 C          7.2590175599        1.8437643679       -1.8245819952
 C          7.5626258875        0.7572515999       -1.0179677511
 C          6.6243549560        0.2849763166       -0.1139452537
 H          6.8165968776       -0.5504559254        0.5386003412
 H          8.5255366284        0.2779731355       -1.0901277143
 H          7.9905944571        2.2108072121       -2.5269934236
 H          5.7891211100        3.3112951511       -2.3614319958
 H          4.1086612807        2.4565640005       -0.7240032386
 H          3.2709041783       -0.4379492584       -0.8207639658
 H          2.8948522839       -1.7312627454        2.5387977762
 H          0.7353383568       -2.6353009022        3.3498583089
 H         -1.2193734021       -2.7001427551        1.8438307818
 H         -2.0085174130       -2.7570543762       -0.4286600495
 C         -1.1278119280       -1.8952291938       -2.1759432974
 C         -0.6190609972       -3.1537708898       -2.8110423336
 C         -2.0198532183       -2.6932422800       -3.0770598460
 H         -2.2561618377       -2.2935431721       -4.0518553115
 H         -2.8333215051       -3.2373543602       -2.6201041052
 H          0.1077705372       -3.0745003411       -3.6048363111
 H         -0.4798600301       -4.0112996643       -2.1704422237
 H         -0.7625178454       -0.9488845753       -2.5561295860
