  62
        -98.93589564
 C          1.3226448822        1.5417507624        0.1912839014
 C          2.2634080699        0.9632139396        1.0780678007
 C          3.2093851413       -0.0179279980        0.5125847242
 C          3.0908445725       -0.3526211889       -0.7851335229
 C          3.9673344319       -1.2823231971       -1.5816440794
 C          3.7014114592       -2.7741382568       -1.3074568522
 C          3.3399591672       -3.1133467595        0.1371488280
 H          2.9757485052       -4.1436218388        0.1609168121
 H          2.5202603395       -2.4707343737        0.4641709842
 C          4.4977945969       -3.0104659185        1.1271531735
 H          5.2552681063       -3.7538138866        0.8667223404
 H          4.1117051498       -3.2630480176        2.1179882922
 C          5.1805216063       -1.6461653645        1.2088836399
 H          5.7587837147       -1.4530469546        0.3094382052
 H          5.8954599591       -1.6882429857        2.0361402958
 C          4.2469397063       -0.4765220320        1.5079445357
 H          4.8592903671        0.4058108110        1.7334759017
 H          3.6961117408       -0.6879895977        2.4315673952
 H          4.5815766807       -3.3451935673       -1.6068366535
 H          2.8712506457       -3.0861148961       -1.9441877459
 H          5.0091495043       -1.0310834212       -1.3985653381
 H          3.7613876029       -1.0797691952       -2.6349165877
 O          2.0910313571        0.1359368956       -1.5694628572
 C          1.1932841168        1.0954264568       -1.1243125360
 O          0.3605975245        1.4395163480       -1.9813317741
 O          2.3252454382        1.2634337577        2.3013117580
 C          0.4296812542        2.6409115726        0.7381563591
 C         -1.0112763837        2.3970384144        0.3737514475
 C         -1.6940266228        3.1506262789       -0.5718285869
 C         -3.0121672301        2.8628962577       -0.8797988079
 C         -3.6805358387        1.8314561651       -0.2457276638
 C         -3.0060701096        1.0704569000        0.7004373819
 C         -1.6823339976        1.3545077583        1.0018299140
 H         -1.1556956031        0.7550886262        1.7345943308
 N         -3.6873968862        0.0190269227        1.3533635008
 S         -4.1519941398       -1.2917530223        0.4228096732
 O         -4.9697035201       -0.8262024187       -0.6665593981
 O         -4.7708629423       -2.2198249992        1.3412614469
 C         -2.6299212508       -1.9876458726       -0.1941918917
 C         -2.1443725214       -3.1442347319        0.3838322255
 C         -0.9397620385       -3.6618924637       -0.0621669748
 C         -0.2400607948       -3.0094469725       -1.0656883168
 C         -0.7348337417       -1.8438715971       -1.6292645846
 C         -1.9431982938       -1.3246240951       -1.1919834460
 H         -2.3464302986       -0.4183921066       -1.6147231906
 H         -0.1829151569       -1.3209232637       -2.3946283411
 H          0.6986815876       -3.4118184478       -1.4110711738
 H         -0.5480989142       -4.5671969885        0.3731087397
 H         -2.7239146430       -3.6166681780        1.1606641966
 H         -3.2046555254       -0.3182869290        2.1748699309
 H         -4.7030275783        1.5883842407       -0.4840982835
 H         -3.5276626672        3.4514190792       -1.6236341063
 H         -1.1835707284        3.9474990686       -1.0869432115
 H          0.5225596832        2.5470977111        1.8327746457
 C          0.8978063911        4.0458245893        0.3847777107
 C          2.3587242277        4.3651580648        0.2861234674
 C          1.5013105166        4.3928288363       -0.9417938714
 H          1.2616055988        5.3523238455       -1.3764472219
 H          1.6133845176        3.6026715026       -1.6676156903
 H          2.7097860637        5.3015650154        0.6927491694
 H          3.0568445159        3.5489788948        0.4034417658
 H          0.2705615732        4.8035330152        0.8446501850
