  62
        -98.92874037
 C          2.4929916306        0.1722873346       -0.7353510366
 C          2.2967179433        0.8663549133        0.4836236217
 C          1.6471522072        2.1798667828        0.3754942720
 C          1.2610610759        2.6360332330       -0.8282549351
 C          0.5472594514        3.9317512367       -1.1046107133
 C         -0.8781672206        4.0147831957       -0.5225251076
 C         -0.9604861390        4.7390829472        0.8274876646
 H         -0.0987431694        5.4010814462        0.9228354402
 H         -1.8473359981        5.3760937293        0.8305178518
 C         -1.0501499768        3.8390905165        2.0639447692
 H         -0.8286278301        4.4531771872        2.9401106153
 H         -2.0755512260        3.4767590722        2.1651760097
 C         -0.1329126156        2.6150085777        2.0716859109
 H         -0.1440689815        2.1874323552        3.0768418536
 H         -0.5317238481        1.8466882708        1.4053704047
 C          1.3240220438        2.8964855150        1.6546461349
 H          1.4977652575        3.9666034163        1.5504530693
 H          2.0068107505        2.5047517397        2.4115346194
 H         -1.4901682338        4.5587667438       -1.2440289051
 H         -1.2866281576        3.0061331486       -0.4447471845
 H          1.1502974314        4.7605666983       -0.7271546426
 H          0.4999851035        4.0179074888       -2.1920105487
 O          1.4978463761        1.9516935607       -1.9820149251
 C          2.0825065970        0.6982261004       -1.9586348337
 O          2.1963906697        0.1622670253       -3.0832194852
 O          2.6363393875        0.4176289412        1.6077235955
 C          3.0172875251       -1.2616568347       -0.7316639274
 C          2.1031617993       -2.0270528372        0.1981271120
 C          2.4187322251       -2.6856598986        1.3780390644
 C          1.4191234789       -3.2389163484        2.1638776546
 C          0.0874408164       -3.1288810638        1.8167727398
 C         -0.2430268504       -2.4855732550        0.6284160583
 C          0.7603928016       -1.9798047203       -0.1757683235
 H          0.4852903264       -1.4840304805       -1.0974655483
 N         -1.5820448989       -2.3421667924        0.2224466256
 S         -1.9980425354       -0.9375468660       -0.6217853930
 O         -1.7712902705       -1.1646790089       -2.0281046663
 O         -1.3543014353        0.2178606270       -0.0408335864
 C         -3.7523011323       -0.8848502180       -0.3046372684
 C         -4.5847309284       -1.7054614676       -1.0423795337
 C         -5.9447424490       -1.6929171205       -0.7766367251
 C         -6.4470233767       -0.8650175872        0.2166671551
 C         -5.5998350310       -0.0456515425        0.9473387074
 C         -4.2381375440       -0.0549576545        0.6877409750
 H         -3.5412409029        0.5681009210        1.2255620105
 H         -5.9927309538        0.5990412012        1.7168407225
 H         -7.5059731053       -0.8564749677        0.4208067338
 H         -6.6065204395       -2.3267391730       -1.3444261154
 H         -4.1483645302       -2.3228900525       -1.8101887019
 H         -2.2394148515       -2.5400400448        0.9646612075
 H         -0.6873916460       -3.5270583271        2.4539016515
 H          1.6883118779       -3.7391813353        3.0819763764
 H          3.4336554016       -2.7522979962        1.7246003948
 H          2.8162265620       -1.6396485287       -1.7488021450
 C          4.5295476315       -1.2657723017       -0.5851314921
 C          5.2833268428       -1.1624215046        0.7034991204
 C          5.3458440863       -2.4269992961       -0.1017020443
 H          6.2644295772       -2.6443592144       -0.6267176002
 H          4.8313827975       -3.3057971462        0.2506615519
 H          6.1562134274       -0.5254412318        0.7182666407
 H          4.7148279916       -1.1248700776        1.6177397790
 H          4.9549744523       -0.7089339342       -1.4182905284
