  62
        -98.94548506
 C          2.6526178047        1.0383846075        0.2619583873
 C          2.5061704358        0.2793648601       -0.9249124821
 C          3.0856969709       -1.0714286224       -0.8954664964
 C          3.7144577891       -1.4967535390        0.2153038143
 C          4.2955179881       -2.8679376646        0.4015431654
 C          3.2696722773       -3.8238513064        1.0266670653
 C          1.9044624535       -3.8041557540        0.3377662855
 H          1.2712907592       -4.5368104725        0.8436817716
 H          1.4359393418       -2.8275692328        0.4866129662
 C          1.9459033516       -4.1159549059       -1.1646611145
 H          2.8872876503       -4.6068332888       -1.4154098583
 H          1.1402270901       -4.8154746863       -1.3970057197
 C          1.7504495608       -2.8984315771       -2.0704817687
 H          0.8534124916       -2.3527255603       -1.7618905122
 H          1.5762951537       -3.2581518584       -3.0882739766
 C          2.9274886712       -1.9156236171       -2.1279917662
 H          3.8491349147       -2.4588116685       -2.3468595236
 H          2.7347830363       -1.2164450164       -2.9468455652
 H          3.6768663978       -4.8359795575        0.9969598216
 H          3.1278617563       -3.5449775847        2.0734755843
 H          4.6247207063       -3.2511470866       -0.5620655531
 H          5.1571709365       -2.7894875276        1.0665577815
 O          3.8468029513       -0.7330971245        1.3306424066
 C          3.2973323455        0.5381402587        1.3917086599
 O          3.4440622757        1.1102866449        2.4917341976
 H          0.4059010095        0.7160138629        1.5579657631
 C         -0.1428655914        1.3308491008        0.8530334980
 C          0.5417405629        2.3009249639        0.1303219071
 C         -0.1734973840        3.0832691277       -0.7654887637
 C         -1.5310941096        2.8777154410       -0.9453289550
 C         -2.2029387011        1.8980789829       -0.2378204294
 C         -1.4988684578        1.1183338485        0.6708350486
 N         -2.1757520316        0.1148145954        1.3970227283
 S         -2.8436849775       -1.1263882065        0.4734427103
 O         -2.9378703706       -2.2581592567        1.3707771400
 O         -2.1029254739       -1.3358818143       -0.7489686416
 C         -4.4816228039       -0.5317114204        0.1117879082
 C         -4.8828981989       -0.3647471127       -1.1988503930
 C         -6.1627158490        0.1048446933       -1.4518110128
 C         -7.0122023845        0.3973443779       -0.3957265452
 C         -6.5939497967        0.2215666392        0.9151703348
 C         -5.3167361843       -0.2486346635        1.1750402907
 H         -4.9516741731       -0.4029575700        2.1766545595
 H         -7.2574331813        0.4502261525        1.7335060209
 H         -8.0063215150        0.7648353973       -0.5955355533
 H         -6.4896920253        0.2419646824       -2.4699913001
 H         -4.1840237796       -0.5979445068       -1.9863342330
 H         -1.6083705144       -0.2875902011        2.1304847787
 H         -3.2577250653        1.7300146702       -0.3824213430
 H         -2.0726362914        3.4870438598       -1.6526009715
 H          0.3344124952        3.8439746216       -1.3349744788
 C          2.0304252658        2.4212591126        0.3530835993
 H          2.1969933471        2.7639498695        1.3848926559
 C          2.7159410547        3.3792600630       -0.5973342285
 C          2.7469320687        4.8464293335       -0.2945125582
 C          3.9961351941        4.0285806541       -0.1685942328
 H          4.7778424723        4.1601267012       -0.9014927181
 H          4.3616119967        3.7967007279        0.8214769999
 H          2.6743884965        5.5441206400       -1.1149876418
 H          2.2670879397        5.1796593460        0.6132184422
 H          2.6346656736        3.0678687793       -1.6321478211
 O          1.9223318326        0.7050423311       -1.9547026032
