  62
        -98.94551829
 C         -0.8795464697       -1.7931524932       -0.0679834212
 C         -2.1813134066       -1.6821758642        0.4795655634
 C         -3.0341308618       -0.6301688748       -0.0824693704
 C         -2.5465782661        0.1813237010       -1.0377807825
 C         -3.2908473039        1.3036572309       -1.7100746666
 C         -3.3008016907        2.6149832691       -0.9122123559
 C         -4.2056722955        2.6244871073        0.3200042981
 H         -4.2996560200        3.6644346358        0.6394874777
 H         -5.2020048208        2.2756665801        0.0455486605
 C         -3.6723345248        1.7970981547        1.4982114032
 H         -2.6029167812        1.6107958759        1.3641642734
 H         -3.7723367145        2.3733689780        2.4214749216
 C         -4.3953536296        0.4675111983        1.7159823692
 H         -5.4286275953        0.6589390461        2.0157939513
 H         -3.8992861189       -0.0607485117        2.5343515283
 C         -4.4072642488       -0.4571876866        0.4926230375
 H         -4.7586520057       -1.4412778514        0.8136146192
 H         -5.0904992218       -0.0709611009       -0.2638082847
 H         -3.6318868324        3.4070132715       -1.5883203455
 H         -2.2802128248        2.8484362131       -0.5984197897
 H         -4.3172444643        0.9942337094       -1.9111076842
 H         -2.7888517564        1.4827411823       -2.6632896227
 O         -1.2892111938        0.0506219655       -1.5336098082
 C         -0.4158071492       -0.9149164619       -1.0495666466
 O          0.7118151742       -0.8811654331       -1.5753152087
 O         -2.6097060382       -2.4289431288        1.4013666823
 C          0.0549818493       -2.8215955366        0.5415941053
 C          1.3899352908       -2.1929766176        0.8617733347
 C          2.6084374768       -2.8365832562        0.6858815434
 C          3.7935218251       -2.1965144729        1.0066386595
 C          3.7946247494       -0.8950723303        1.4726680040
 C          2.5805892552       -0.2390371501        1.6422357051
 C          1.3964941114       -0.9020808086        1.3750751970
 H          0.4638167040       -0.3810643393        1.5332648375
 N          2.5215305580        1.0996590991        2.0748377885
 S          1.5439555539        2.1707500137        1.2457337873
 O          2.0003771962        3.4755638776        1.6853925218
 O          0.1522322689        1.8893713530        1.4990398906
 C          1.8962245512        2.0079281494       -0.4961563826
 C          0.8825500893        2.3093339010       -1.3802419911
 C          1.1286559688        2.2457109797       -2.7408162812
 C          2.3854736940        1.8820334435       -3.1945749452
 C          3.3980391275        1.5907752538       -2.2954222091
 C          3.1574040310        1.6589847512       -0.9329536220
 H          3.9354655466        1.4328298998       -0.2229196609
 H          4.3746009589        1.3030102824       -2.6506011382
 H          2.5741800473        1.8197644371       -4.2548535231
 H          0.3357705603        2.4668774831       -3.4375501701
 H         -0.0865145831        2.5695662161       -0.9853326732
 H          3.4177642440        1.5210793627        2.2736590638
 H          4.7212150285       -0.3900509761        1.7011987854
 H          4.7315785267       -2.7128644308        0.8715135040
 H          2.6359700225       -3.8367942381        0.2864024601
 H         -0.4262405569       -3.0884507157        1.4987932069
 C          0.1753043878       -4.1138413655       -0.2560848030
 C         -0.8025565310       -4.4589794046       -1.3382269935
 C          0.6115492724       -4.1132366755       -1.6897869850
 H          1.2625557959       -4.9050937557       -2.0301121794
 H          0.8058080012       -3.1541676695       -2.1434779163
 H         -1.1230109330       -5.4864422388       -1.4270407143
 H         -1.5761364503       -3.7395729027       -1.5655421616
 H          0.5127365690       -4.9446323739        0.3557061679
