  62
        -98.94019420
 C         -1.7256361784       -1.1034012418        0.3503750700
 C         -2.0426267223       -0.0122571332       -0.4962425281
 C         -3.4546264201        0.0946299392       -0.8942802869
 C         -4.3507942244       -0.8066745396       -0.4559353413
 C         -5.8158404749       -0.8416678519       -0.7970694476
 C         -6.6820531806        0.0758625685        0.0766850025
 C         -6.5338588278        1.5718317961       -0.2039262130
 H         -6.6682456288        1.7556810046       -1.2703247119
 H         -7.3478122439        2.0779642809        0.3189109160
 C         -5.2001658807        2.1743788022        0.2599273126
 H         -4.7219161002        1.4975905626        0.9717113588
 H         -5.3876273914        3.1122800294        0.7875192608
 C         -4.2150415508        2.4798751091       -0.8685625204
 H         -3.2915179141        2.8617719607       -0.4252437227
 H         -4.6262955986        3.2595828014       -1.5137652761
 C         -3.8541898517        1.2678469065       -1.7371524617
 H         -4.6905241371        1.0058862154       -2.3851991613
 H         -2.9978779100        1.5372045264       -2.3608883114
 H         -7.7247372864       -0.2021440782       -0.0932735561
 H         -6.4520689545       -0.1223355529        1.1260547975
 H         -5.9538109778       -0.5830115644       -1.8472959270
 H         -6.1453749905       -1.8719118078       -0.6459892186
 O         -4.0084679018       -1.8334668641        0.3668175937
 C         -2.7044024987       -1.9892210084        0.8094385791
 O         -2.5455364953       -2.9397133048        1.6007826014
 O         -1.2080545251        0.8344522032       -0.9071569466
 C         -0.3133259918       -1.3366301843        0.8593453925
 C          0.3099035370       -0.0297618546        1.2833833495
 C         -0.2878720224        0.6886929612        2.3157957933
 C          0.2420121434        1.8928294364        2.7354796083
 C          1.3905633864        2.3954609577        2.1501586196
 C          2.0022337980        1.6809577731        1.1262982166
 C          1.4596844081        0.4764939478        0.6986923445
 H          1.9145270384       -0.0352247429       -0.1314234093
 N          3.1977018271        2.1428540268        0.5706998665
 S          3.8932826025        1.5584245449       -0.8204635279
 O          5.0553506784        2.4038262524       -1.0015275682
 O          2.9786022060        1.5101122615       -1.9359958604
 C          4.4217198220       -0.0864361106       -0.3858387353
 C          4.9802858900       -0.3084143253        0.8571107220
 C          5.3940768266       -1.5896432026        1.1851937386
 C          5.2474688737       -2.6209774530        0.2700566292
 C          4.6923600886       -2.3805352022       -0.9772815193
 C          4.2772117749       -1.1011607822       -1.3108255481
 H          3.8319473549       -0.8688260364       -2.2656914195
 H          4.5789073862       -3.1830332958       -1.6887495795
 H          5.5659901156       -3.6182901136        0.5296200617
 H          5.8266207792       -1.7809516735        2.1540304053
 H          5.0766876745        0.5137859888        1.5462327733
 H          3.4812334763        3.0787913991        0.8124541884
 H          1.8069227552        3.3358335102        2.4773493558
 H         -0.2409565614        2.4466950355        3.5266883672
 H         -1.1862495386        0.2955013661        2.7730347068
 H         -0.4362385733       -1.9563865783        1.7633667361
 C          0.5641900446       -2.1336709607       -0.0948260227
 C         -0.0269677959       -3.1608094376       -1.0122053098
 C          0.5522465010       -1.8990433592       -1.5740181086
 H          1.4883005991       -1.9562041501       -2.1096808541
 H         -0.1166272534       -1.1437552959       -1.9558981646
 H          0.5108633755       -4.0849424156       -1.1597434204
 H         -1.1011061410       -3.2764955964       -1.0106864042
 H          1.5232199302       -2.3836149342        0.3499350298
