  62
        -98.94017648
 C          1.4086235829        1.5945835424       -0.5493933820
 C          1.1852550671        0.2368803399       -0.9021254662
 C          2.3351006086       -0.6729286279       -0.7556447715
 C          3.5164240267       -0.2006823512       -0.3261850754
 C          4.7470244871       -1.0254972282       -0.0875573028
 C          4.8135226342       -1.5165926372        1.3649199908
 C          3.5179878380       -2.1600048500        1.8607289032
 H          3.6952936976       -2.5034163371        2.8825901457
 H          2.7318319865       -1.4022739871        1.9128087857
 C          3.0239445526       -3.3349979659        1.0058931256
 H          3.8395259207       -3.7138246778        0.3879244050
 H          2.7167163288       -4.1444848548        1.6717660803
 C          1.8202126070       -3.0092045452        0.1189761895
 H          1.4156066500       -3.9540528390       -0.2564456952
 H          1.0430985667       -2.5309616438        0.7227853038
 C          2.1093680732       -2.1189753436       -1.0968383918
 H          2.9583063874       -2.5211169508       -1.6541452298
 H          1.2272630883       -2.1421982531       -1.7431986960
 H          5.6321539690       -2.2337208796        1.4503305288
 H          5.0394747456       -0.6640376940        2.0096274121
 H          4.7481171647       -1.8736711073       -0.7692905467
 H          5.6212031618       -0.4047107148       -0.2917442037
 O          3.7072081106        1.1055377683       -0.0151326083
 C          2.6684819807        2.0133644410       -0.0941302907
 O          2.9944133725        3.1665407439        0.2590537479
 O          0.1030807812       -0.2371592390       -1.3336884100
 C          0.3759255220        2.7173669093       -0.5527984898
 C         -0.6556198771        2.5665568793        0.5425190715
 C         -0.8635341902        3.5936523039        1.4582047796
 C         -1.8038692754        3.4610878010        2.4641272657
 C         -2.5409564212        2.2966126760        2.5904813757
 C         -2.3392089472        1.2656629704        1.6810439709
 C         -1.4193724654        1.4156204032        0.6538274289
 H         -1.2705323279        0.6098992699       -0.0428118699
 N         -3.0663921573        0.0689818548        1.7593654940
 S         -2.3085308394       -1.3820344920        1.3911557061
 O         -3.1124844123       -2.3832749930        2.0677097868
 O         -0.9137307312       -1.3616490018        1.7686599644
 C         -2.5177575124       -1.6082032411       -0.3622026054
 C         -3.3879683469       -0.8116626957       -1.0765017105
 C         -3.5422897925       -1.0431603597       -2.4341760504
 C         -2.8350449257       -2.0634572939       -3.0491415588
 C         -1.9734601325       -2.8613852563       -2.3137840011
 C         -1.8135243079       -2.6343146235       -0.9570426470
 H         -1.1430712021       -3.2234775290       -0.3522890905
 H         -1.4187760244       -3.6526920181       -2.7930337028
 H         -2.9503056937       -2.2338644623       -4.1081830159
 H         -4.2080710880       -0.4193766275       -3.0090367430
 H         -3.9148736091       -0.0155124141       -0.5769847248
 H         -3.6699189310       -0.0212919899        2.5633399770
 H         -3.2612408410        2.1841332505        3.3867611089
 H         -1.9545987296        4.2662265928        3.1674183184
 H         -0.2708483532        4.4943754671        1.3852248103
 H          0.9740363415        3.6061287447       -0.2984382388
 C         -0.3096079616        3.0716471724       -1.8700934729
 C          0.2696625723        2.7176483499       -3.2052015339
 C         -1.0329866135        2.1174579148       -2.7682949866
 H         -1.9402108922        2.4661069199       -3.2398736004
 H         -1.0390246033        1.0732006555       -2.5053307088
 H          0.2725129156        3.4658999459       -3.9840963274
 H          1.1378072117        2.0738791300       -3.2124389928
 H         -0.7529245508        4.0618170283       -1.7987890414
