  62
        -98.94041905
 C          2.5451616474       -1.2660062896       -0.1259770109
 C          3.4012308526       -0.5996862609       -1.0423673705
 C          4.3502795794        0.3645811951       -0.4731250434
 C          4.3762653992        0.5484152683        0.8590395617
 C          5.2522171155        1.5355962729        1.5732463201
 C          4.5453914995        2.8886742110        1.7358988508
 C          3.9200892110        3.4185646211        0.4453286711
 H          3.1038910415        2.7566896051        0.1461022600
 H          3.4775585999        4.3904510499        0.6742315746
 C          4.9049827765        3.5674261880       -0.7228019276
 H          4.7328553953        4.5321956710       -1.2044696118
 H          5.9284822273        3.5716572263       -0.3462105143
 C          4.7687318624        2.4975156644       -1.8078575973
 H          3.7244064985        2.4245966672       -2.1219267431
 H          5.3500893804        2.8182615122       -2.6762789794
 C          5.2553248120        1.0940329395       -1.4253666113
 H          5.2789366749        0.4902201450       -2.3371621122
 H          6.2694651367        1.1520211208       -1.0248799131
 H          3.7529627482        2.7779773520        2.4799128162
 H          5.2688773027        3.6122469098        2.1159061703
 H          5.4863165579        1.1364820522        2.5616357306
 H          6.1775610653        1.6619387311        1.0146013925
 O          3.5597431127       -0.1213322091        1.7096017874
 C          2.6138974211       -1.0297273816        1.2473457542
 O          1.9261867252       -1.5320608217        2.1570269936
 O          3.3739923845       -0.8106228474       -2.2840823719
 C          1.5596337811       -2.2564740039       -0.7208782252
 C          0.2142376854       -1.6210734037       -0.9640452848
 C         -0.4251929166       -1.7456974851       -2.1916270359
 C         -1.6697031772       -1.1758892345       -2.3980069039
 C         -2.2991403801       -0.4700266504       -1.3885334363
 C         -1.6686068369       -0.3391274594       -0.1578442712
 C         -0.4218046474       -0.9126548331        0.0462011485
 H          0.0586141629       -0.8194125417        1.0095405649
 N         -2.2928765649        0.3869362943        0.8725269629
 S         -3.8700516526       -0.0320090312        1.2733887301
 O         -4.0435595259        0.3982773267        2.6432563142
 O         -4.1314766588       -1.4261558627        0.9988349927
 C         -4.8629654450        0.9971027428        0.2126488404
 C         -4.6375017841        2.3596586846        0.2335551963
 C         -5.4065279982        3.1772872107       -0.5789544336
 C         -6.3844879395        2.6221952179       -1.3911441940
 C         -6.6011094713        1.2527835313       -1.3975370458
 C         -5.8342660982        0.4288825247       -0.5880776376
 H         -5.9616872471       -0.6415986578       -0.5649723117
 H         -7.3615830682        0.8234670850       -2.0296865255
 H         -6.9808492214        3.2611356791       -2.0231404836
 H         -5.2408013299        4.2426009201       -0.5767356489
 H         -3.8692174822        2.7500017717        0.8801215889
 H         -1.7268206312        0.4582483152        1.7063915207
 H         -3.2680717120       -0.0242303260       -1.5430805524
 H         -2.1548007316       -1.2805231065       -3.3563073660
 H          0.0643828124       -2.2855646698       -2.9888230062
 H          1.9849438393       -2.5113951222       -1.7044729361
 C          1.4606455338       -3.5506652844        0.0766155050
 C          0.2503046339       -3.9616056689        0.8553043722
 C          0.5967179100       -4.6738421914       -0.4157835379
 H          0.9756752527       -5.6829094024       -0.3596620373
 H         -0.0255915368       -4.4804860064       -1.2765327543
 H          0.4104640005       -4.4641173305        1.7972436696
 H         -0.6105078264       -3.3104380567        0.8583122225
 H          2.4172939275       -3.8292156805        0.5077024054
