  62
        -98.94379349
 C         -0.8184625971       -2.1086889141        0.5639432030
 C          0.2193773280       -1.3970718865        1.2163938627
 C          1.5877707411       -1.8606573685        0.9343262946
 C          1.7883900379       -2.8446903288        0.0415450865
 C          3.1317397215       -3.3660415313       -0.3787112415
 C          3.6712607079       -2.6166397600       -1.6043392023
 C          3.6249772783       -1.0932978201       -1.4778406450
 H          4.0859986265       -0.6810774988       -2.3790382753
 H          2.5844431662       -0.7577137566       -1.4784252465
 C          4.3386142038       -0.5346565335       -0.2388791254
 H          5.0325397281       -1.2774496786        0.1573810665
 H          4.9286907787        0.3333797096       -0.5407577264
 C          3.3954084700       -0.0688684875        0.8713166730
 H          3.9679073657        0.5388112973        1.5771353625
 H          2.6194993864        0.5678346970        0.4390268713
 C          2.7059513562       -1.1795978503        1.6718137744
 H          3.4456169705       -1.9087821652        2.0092278863
 H          2.2475076526       -0.7174927616        2.5509187932
 H          4.7014347900       -2.9365982440       -1.7751287609
 H          3.0773401504       -2.9029279652       -2.4756391223
 H          3.8276057502       -3.2698429955        0.4527009989
 H          3.0248409282       -4.4227943224       -0.6308609697
 O          0.7718798423       -3.4654275263       -0.6111716233
 C         -0.5438773401       -3.1143363140       -0.3654759250
 O         -1.3786203955       -3.7734257803       -1.0208062645
 O          0.0388734813       -0.4322068263        2.0023173909
 C         -2.2949030692       -1.7962429229        0.7551094813
 C         -2.7371844948       -0.7570787574       -0.2428266509
 C         -3.9094843933       -0.9024229259       -0.9743949616
 C         -4.2765459584        0.0532103702       -1.9062273536
 C         -3.4727544950        1.1541274248       -2.1412639548
 C         -2.2965775366        1.3063176433       -1.4147581241
 C         -1.9512851116        0.3662810771       -0.4568720822
 H         -1.0413251428        0.4904739337        0.1060990283
 N         -1.4541260032        2.4089211282       -1.6190780853
 S          0.2121221777        2.2476859687       -1.5342498337
 O          0.7253804426        3.1929842702       -2.5061164749
 O          0.6285216863        0.8768711409       -1.7202921209
 C          0.6685116827        2.8273368143        0.0875521257
 C          2.0078680509        3.1057923929        0.2836389164
 C          2.4307167271        3.5480963177        1.5260801059
 C          1.5093108653        3.7041164438        2.5499134449
 C          0.1686436071        3.4298461551        2.3349577143
 C         -0.2612462091        2.9888957603        1.0926734447
 H         -1.2995441876        2.7703992535        0.9067640642
 H         -0.5479303643        3.5515524120        3.1311655335
 H          1.8382972624        4.0417222575        3.5200738746
 H          3.4740852656        3.7641885545        1.6908112264
 H          2.6890209324        2.9743671257       -0.5425713628
 H         -1.7224864864        3.0211787952       -2.3751377066
 H         -3.7465833890        1.8875638918       -2.8844115763
 H         -5.1893124272       -0.0691117864       -2.4694043841
 H         -4.5222868880       -1.7794032994       -0.8253849206
 H         -2.8246270132       -2.7318318766        0.5128581024
 C         -2.6487336027       -1.4304345226        2.1902231503
 C         -3.0256604916       -0.0470887042        2.6176516976
 C         -4.0700409349       -1.1181603608        2.5553599886
 H         -4.4644354032       -1.5148939916        3.4785166190
 H         -4.7897323745       -1.0673329866        1.7523247379
 H         -2.6770183745        0.2892682596        3.5815780673
 H         -3.0455155557        0.7268625544        1.8668035963
 H         -2.0804144896       -2.0159008878        2.9053706018
