  62
        -98.93895649
 C          1.8213222600        0.8698670916        0.4245743173
 C          2.4626727817        0.2798368179       -0.6888266687
 C          3.5540930587       -0.6672808171       -0.3915772048
 C          3.8653906889       -0.9402673487        0.8891852229
 C          4.8893457711       -1.8822135642        1.4880122977
 C          6.0090146741       -2.4673134650        0.6312352066
 C          7.0346227936       -1.4486241633        0.1354006167
 H          7.6103438408       -1.0898590897        0.9923632011
 H          7.7254102209       -1.9607993790       -0.5379489134
 C          6.4596834525       -0.2271500811       -0.5774757756
 H          5.8494225310        0.3510417126        0.1193503089
 H          7.2968286851        0.4094949501       -0.8762858939
 C          5.6353364568       -0.5273431354       -1.8279710372
 H          6.2206876706       -1.1401340134       -2.5161905071
 H          5.4287245448        0.4257227521       -2.3221176395
 C          4.2843312333       -1.2213378120       -1.5806743677
 H          3.6433063059       -1.0332402913       -2.4471229706
 H          4.4023966251       -2.2987924772       -1.4918822958
 H          6.5379474502       -3.1874642822        1.2616145077
 H          5.5932636501       -3.0259683713       -0.2021680892
 H          5.3304889176       -1.3426747954        2.3322120364
 H          4.3155632491       -2.7104900308        1.9189191073
 O          3.1848185151       -0.3765870991        1.9313552463
 C          2.1621355941        0.5336809764        1.7322834840
 O          1.6370593842        0.9566721394        2.7830434551
 H         -0.4038874104       -0.4732779052        0.7740826668
 C         -0.8919231966       -0.0138333402       -0.0772393691
 C         -0.4429698077        1.2228962081       -0.5253111873
 C         -1.0890875736        1.8088217925       -1.6053061336
 C         -2.1329816334        1.1541010066       -2.2375358881
 C         -2.5615798271       -0.0860770287       -1.8032666549
 C         -1.9355368613       -0.6712884140       -0.7091701599
 N         -2.3772204911       -1.9209388623       -0.2432881755
 S         -4.0265095723       -2.1697601520       -0.1113647041
 O         -4.1789906588       -3.1444564725        0.9462923958
 O         -4.5643567746       -2.5480134727       -1.3945073471
 C         -4.7039271629       -0.5943095798        0.3825746285
 C         -5.6505071640        0.0254816820       -0.4073992995
 C         -6.1420930218        1.2617591815       -0.0197126936
 C         -5.6770880286        1.8557171379        1.1430499537
 C         -4.7281562741        1.2186499731        1.9282464466
 C         -4.2355486917       -0.0186923497        1.5471514909
 H         -3.4993599721       -0.5389797216        2.1392929401
 H         -4.3658663586        1.6813429029        2.8323503957
 H         -6.0551523009        2.8207261218        1.4413906258
 H         -6.8813699997        1.7585365902       -0.6269372590
 H         -5.9798240750       -0.4703280794       -1.3059558343
 H         -1.8877888069       -2.2520840310        0.5745329369
 H         -3.3605537093       -0.6157076588       -2.2962999208
 H         -2.6177088928        1.6156418825       -3.0840187216
 H         -0.7693364882        2.7743077454       -1.9604512568
 C          0.7007556871        1.8723307230        0.2163588663
 H          0.3428999561        2.1371061234        1.2222857708
 C          1.2312374345        3.1211918970       -0.4558739258
 C          0.5851739865        4.4485687064       -0.1997613486
 C          1.9334325178        4.1470509486        0.3803768069
 H          2.7985676975        4.6444822382       -0.0317675727
 H          2.0055876889        3.9566199934        1.4416888995
 H         -0.2597284162        4.4723317871        0.4715407458
 H          0.5260661489        5.1588229168       -1.0105416796
 H          1.6297805038        2.9244263917       -1.4442596884
 O          2.1402969567        0.5235141052       -1.8801530208
