  62
        -98.93541460
 C          1.9745680051       -0.3881237291        0.0053706183
 C          3.0791338035       -1.0402549050       -0.5983938095
 C          4.3214980019       -0.2624014278       -0.7449415835
 C          4.3451594836        1.0207665654       -0.3404855265
 C          5.4394278634        2.0661459915       -0.3988479069
 C          6.8832179846        1.6699700530       -0.6962844961
 C          7.5578624493        0.8436929751        0.3984543389
 H          8.5402537163        0.5331932604        0.0360028872
 H          7.7125755308        1.4840552519        1.2706259946
 C          6.7873681459       -0.3892490693        0.8641451947
 H          5.8421432212       -0.0811544502        1.3160250571
 H          7.3751759761       -0.8741078385        1.6483748356
 C          6.5057685993       -1.4311147449       -0.2167073292
 H          7.4405693180       -1.7199352402       -0.7009455243
 H          6.0986314904       -2.3171462051        0.2781098919
 C          5.5022497804       -1.0044193390       -1.3019093013
 H          5.9873362416       -0.4235946959       -2.0827297141
 H          5.1027543172       -1.9101012554       -1.7675643182
 H          6.9441477679        1.1591692118       -1.6527633692
 H          7.4460599479        2.6017447274       -0.7995341282
 H          5.4027121786        2.5895501021        0.5620582629
 H          5.1159259012        2.7906062170       -1.1545736768
 O          3.2424123695        1.6226013079        0.1907972459
 C          2.0418692914        0.9519581279        0.3859429030
 O          1.1553432530        1.6611065515        0.8955769620
 O          3.0295159610       -2.2303620390       -1.0086195045
 C          0.6941768337       -1.1904906084        0.1613010624
 C         -0.4726916819       -0.4176796216       -0.3959505497
 C         -0.6437664379       -0.3479568572       -1.7752384979
 C         -1.6860107606        0.3758929041       -2.3235611024
 C         -2.5778295166        1.0483426193       -1.5071527658
 C         -2.4138309255        0.9867295213       -0.1297235400
 C         -1.3766722151        0.2446635653        0.4196472427
 H         -1.2482719528        0.2202628048        1.4904293486
 N         -3.3156900065        1.6712927351        0.7026083357
 S         -4.9498333491        1.4763908613        0.4117066751
 O         -5.3534735407        2.3093544375       -0.6936863479
 O         -5.5989594664        1.7448930558        1.6756329082
 C         -5.1236496419       -0.2434374389       -0.0300853000
 C         -4.8487143398       -1.1894641988        0.9377648786
 C         -4.9205521207       -2.5316122726        0.6033893650
 C         -5.2602280255       -2.9033049689       -0.6887098322
 C         -5.5370624707       -1.9418722742       -1.6477661014
 C         -5.4669995181       -0.5974167055       -1.3185822805
 H         -5.6746066293        0.1816207190       -2.0336192249
 H         -5.8031512260       -2.2340683899       -2.6507816031
 H         -5.3103084567       -3.9490613178       -0.9480338135
 H         -4.7083715941       -3.2818448133        1.3481769156
 H         -4.5945279784       -0.8642078757        1.9338531051
 H         -3.0983452678        1.6037802789        1.6854638339
 H         -3.3868645930        1.6326512474       -1.9147108908
 H         -1.8035638687        0.4225032031       -3.3955499038
 H          0.0598051039       -0.8626084789       -2.4150335404
 H          0.8527627830       -2.0736768490       -0.4783771474
 C          0.4426912734       -1.7177402385        1.5662687868
 C          1.5834577508       -2.1830554943        2.4196853604
 C          0.8082228563       -0.9610504394        2.8066713783
 H          0.1450505451       -1.0259221785        3.6575393850
 H          1.2742471227        0.0050951430        2.6929568794
 H          1.4590140510       -3.0813539225        3.0052887484
 H          2.5818708426       -2.0503594388        2.0289859145
 H         -0.4663877814       -2.3099676773        1.6122710628
