  62
        -98.94532978
 C         -2.3570801370       -0.4048623986        0.0949107272
 C         -1.5628339375        0.2633749591       -0.8636039803
 C         -1.6223324145        1.7355625407       -0.8599189530
 C         -2.3715863345        2.3591964852        0.0656447301
 C         -2.6527691576        3.8323160827        0.2430535138
 C         -1.5325628946        4.8325569716       -0.0523359735
 C         -0.1387337409        4.3960102031        0.4210093299
 H          0.2975909936        5.1904429357        1.0297606948
 H         -0.2125296469        3.5072536908        1.0518340825
 C          0.8184817848        4.0999802441       -0.7344889108
 H          1.8439491192        4.1496991075       -0.3597233734
 H          0.7064219868        4.8701855715       -1.5012469471
 C          0.6352331187        2.7205754165       -1.3617020929
 H          0.8822486259        1.9612679455       -0.6159029985
 H          1.3519456205        2.6190191734       -2.1805921388
 C         -0.7765326345        2.4215406197       -1.8954358228
 H         -1.2544076998        3.3228628429       -2.2724757378
 H         -0.6822172478        1.7092278449       -2.7195828177
 H         -1.8104726935        5.7646374567        0.4435476018
 H         -1.5002327418        5.0429004402       -1.1201705874
 H         -2.9640353497        3.9358642108        1.2860505755
 H         -3.5225459452        4.0797962560       -0.3743203447
 O         -3.0778337703        1.6722275488        1.0111686179
 C         -3.0897252141        0.2903752271        1.0527031085
 O         -3.7812307575       -0.1941721838        1.9737639846
 O         -0.8507822954       -0.3443069262       -1.7061569825
 C         -2.3869163727       -1.9220269472        0.1306395756
 C         -0.9861592602       -2.4729016486        0.2414390691
 C         -0.5494211913       -3.5936503399       -0.4546609865
 C          0.7530906289       -4.0419142175       -0.3176562112
 C          1.6516576610       -3.3715598019        0.4921321239
 C          1.2217195430       -2.2540880653        1.1980910187
 C         -0.0942864148       -1.8349050394        1.0936491059
 H         -0.4150330036       -0.9680747452        1.6533017094
 N          2.1019171455       -1.5152163554        2.0170886633
 S          2.3897772326        0.0756009128        1.5699842904
 O          3.3646268070        0.5616293565        2.5234738645
 O          1.1475926894        0.8002469856        1.5061453862
 C          3.1573291687       -0.0494702325       -0.0370084802
 C          2.3926863237       -0.3695706364       -1.1414541112
 C          3.0274284898       -0.5269013333       -2.3647379009
 C          4.4004024737       -0.3669876047       -2.4643060058
 C          5.1530570743       -0.0471402110       -1.3441454108
 C          4.5280803454        0.1082320442       -0.1180272070
 H          5.0698034359        0.3578590086        0.7800617021
 H          6.2208981664        0.0795105824       -1.4216836225
 H          4.8852365632       -0.4912563949       -3.4198174162
 H          2.4333021873       -0.7742274008       -3.2297758799
 H          1.3227361265       -0.4815688285       -1.0557987708
 H          2.9883866020       -1.9749956107        2.1765638179
 H          2.6750834419       -3.7044744393        0.5784051182
 H          1.0776402866       -4.9141117419       -0.8641495681
 H         -1.2290407837       -4.1140241579       -1.1094865288
 H         -2.9373471890       -2.1940407852        1.0438321943
 C         -3.1432741455       -2.4503555734       -1.0721796956
 C         -3.9352582561       -3.7188227807       -0.9757244374
 C         -4.6405065054       -2.3995704553       -1.0611787252
 H         -5.1553377576       -2.1448302292       -1.9753288772
 H         -5.1140276026       -2.0099669898       -0.1713659577
 H         -3.9709764551       -4.3717095578       -1.8348373600
 H         -3.9424049919       -4.2340330745       -0.0270543133
 H         -2.6426193491       -2.2264986425       -2.0072637994
