  62
        -98.94087153
 C          1.5799075103        0.6526291460        0.3896125601
 C          2.6843347035        0.8953016839       -0.4647178553
 C          3.6153667355       -0.2320470976       -0.6313512576
 C          3.3559279630       -1.4166262542       -0.0514878931
 C          4.1935216428       -2.6617491143       -0.1608143978
 C          5.3664451743       -2.7127860401        0.8278661683
 C          6.5261146669       -1.7672075227        0.5122572897
 H          6.8405881816       -1.9116243933       -0.5217926234
 H          7.3617313606       -2.0610773327        1.1506346011
 C          6.2177686892       -0.2832739192        0.7560806848
 H          7.0477009942        0.1769771792        1.2971428205
 H          5.3340763871       -0.1946574946        1.3924831754
 C          5.9962298802        0.5352651857       -0.5160306464
 H          6.9204000835        0.5653324557       -1.0974084998
 H          5.7484986771        1.5595257169       -0.2256400799
 C          4.8694260697        0.0113025822       -1.4157450403
 H          5.1860736103       -0.8999195469       -1.9223745570
 H          4.6488419574        0.7730773903       -2.1673417001
 H          5.7498707569       -3.7357587387        0.8259571559
 H          4.9877162642       -2.5024354085        1.8308803140
 H          3.5297408636       -3.5027525801        0.0506437401
 H          4.5700373707       -2.7630688857       -1.1790389535
 O          2.2492725499       -1.6279898121        0.7109616981
 C          1.3605637103       -0.5988207101        0.9708411307
 O          0.4181469941       -0.9177826428        1.7242513823
 H         -2.1061972145        1.3824121545        1.2230975996
 C         -1.8967582103        1.4605209449        0.1670028173
 C         -0.5942560919        1.6361692309       -0.2742559781
 C         -0.3536407321        1.7197836324       -1.6429992282
 C         -1.4000460645        1.6370978886       -2.5423596946
 C         -2.6980064577        1.4477614229       -2.0988798389
 C         -2.9471117161        1.3537791086       -0.7354231843
 N         -4.2541441423        1.1620100218       -0.2527461484
 S         -4.5410542009       -0.0648560987        0.8529054346
 O         -5.9808050134       -0.2046927156        0.8681028965
 O         -3.9217689403        0.2546847621        2.1122802489
 C         -3.8051247909       -1.5101897822        0.1116140763
 C         -4.5824624965       -2.2514973704       -0.7585797908
 C         -4.0204666625       -3.3404187260       -1.4032201652
 C         -2.6902197014       -3.6629459608       -1.1778210807
 C         -1.9245337149       -2.9076873273       -0.3042003419
 C         -2.4817495303       -1.8196627770        0.3506748025
 H         -1.8923999564       -1.2315932360        1.0367701080
 H         -0.8889229694       -3.1474769980       -0.1183230775
 H         -2.2480362888       -4.5078943226       -1.6819577610
 H         -4.6166432558       -3.9320087370       -2.0791705601
 H         -5.6139296915       -1.9702621719       -0.8977689039
 H         -4.9582937843        1.1436145753       -0.9773681956
 H         -3.5130301889        1.3743544813       -2.8027669657
 H         -1.2030594909        1.7106298683       -3.6011363731
 H          0.6602950663        1.8548721417       -1.9883825033
 C          0.5345773423        1.7054673929        0.7213783983
 H          0.1240169354        1.4088075593        1.7005445800
 C          1.1141338622        3.1036256009        0.8846505688
 C          0.8124565543        4.2432566005       -0.0367867836
 C          0.2224168469        4.2214953895        1.3390476473
 H          0.5940247925        4.9146182782        2.0786026953
 H         -0.8324732257        4.0054892788        1.4278426536
 H          0.1559728923        4.0676955253       -0.8739873940
 H          1.6125224592        4.9357945797       -0.2491495258
 H          2.1139925304        3.0812316350        1.3055461116
 O          2.8996321124        1.9775236907       -1.0655556477
