  62
        -98.93668585
 C         -0.8310181203       -1.7634255695        0.2349245009
 C         -1.4612925302       -0.8332240888        1.0998695902
 C         -2.4959514102        0.0287398608        0.5098811195
 C         -2.7619249103       -0.0835911203       -0.8038367703
 C         -3.8146050904        0.6857575791       -1.5504638409
 C         -5.2097719104        0.0955750794       -1.2621019503
 C         -6.1457400003        1.0350942401       -0.5012057609
 H         -6.5175069703        1.7978423295       -1.1885955015
 H         -7.0023866303        0.4447544904       -0.1691160204
 C         -5.5332651501        1.7502292311        0.7066679884
 H         -6.3623819301        2.1635729916        1.2847779981
 H         -4.9370278501        2.5983699608        0.3668782376
 C         -4.6709475601        0.8819635018        1.6316788590
 H         -4.9475403601       -0.1685180083        1.5403526699
 H         -4.8769572900        1.1769190727        2.6625362288
 C         -3.1527740601        1.0294975316        1.4206218288
 H         -2.9277267001        2.0420009213        1.0729007879
 H         -2.6561909400        0.8917713123        2.3858266188
 H         -5.6897070405       -0.1784126313       -2.2028841600
 H         -5.0792390004       -0.8291017401       -0.6959552895
 H         -3.7731840403        1.7344003194       -1.2633969017
 H         -3.5778947205        0.6079906483       -2.6121519308
 O         -2.1395374905       -0.9844342510       -1.6042389897
 C         -1.1509422604       -1.8380585006       -1.1221931990
 O         -0.6807067906       -2.5923607213       -1.9919143385
 O         -1.1639744901       -0.7270706278        2.3205200800
 C          0.2698613197       -2.6056779590        0.8556428115
 C          1.5639310697       -1.8293678991        0.8768526707
 C          2.3945494798       -1.8489621482        1.9914715306
 C          3.5742733299       -1.1262696482        2.0035130199
 C          3.9315394398       -0.3462303691        0.9183203793
 C          3.1017952797       -0.3094510600       -0.1959138007
 C          1.9386733697       -1.0646485300       -0.2188465800
 H          1.3130655096       -1.0347848707       -1.0983877699
 N          3.4042684396        0.5073613591       -1.3046634214
 S          2.2455000096        1.6427534188       -1.7327832322
 O          1.1015632596        0.9984513483       -2.3232628116
 O          2.9522393196        2.5888772280       -2.5693105431
 C          1.8074544598        2.4031269801       -0.1813184628
 C          2.5857853999        3.4391385104        0.2981465163
 C          2.3060966900        3.9624124915        1.5499134858
 C          1.2719676001        3.4300932421        2.3059173364
 C          0.5013087300        2.3893783118        1.8114627173
 C          0.7669543499        1.8730099607        0.5534784277
 H          0.1807629998        1.0665831604        0.1406337584
 H         -0.2948551800        1.9550830223        2.3952006777
 H          1.0627265002        3.8270050830        3.2866782961
 H          2.8988847401        4.7758732118        1.9360313451
 H          3.3804862498        3.8208622099       -0.3223482641
 H          4.3081831696        0.9561511991       -1.2426330619
 H          4.8407446998        0.2352393209        0.9325475587
 H          4.2126652900       -1.1545988475        2.8729428099
 H          2.1018826999       -2.4234097374        2.8577222311
 H         -0.0361680502       -2.7531728981        1.9042466016
 C          0.4261856196       -3.9829033595        0.2298025126
 C          1.5415971595       -4.3332512604       -0.7038462572
 C          1.5226836996       -4.9019587692        0.6814342432
 H          1.2961008896       -5.9498603191        0.8062953441
 H          2.2423368297       -4.5158534087        1.3868466829
 H          1.3104659794       -4.9745188610       -1.5404503267
 H          2.2662660795       -3.5682037406       -0.9369609979
 H         -0.5349167804       -4.4394423897        0.0169587530
