  62
        -98.94848834
 C         -2.3576914864       -0.6167749653        0.1711632066
 C         -1.5442164699       -0.0118300406       -0.8164650532
 C         -1.6814849888        1.4442500294       -0.9648114561
 C         -2.5294887718        2.1131524322       -0.1642979814
 C         -2.7687584112        3.5943382746       -0.2069984825
 C         -1.8487353060        4.3497562692        0.7604802816
 C         -0.3720193779        3.9731671569        0.6376679685
 H          0.1840318091        4.6134055497        1.3270207017
 H         -0.2262736535        2.9451418295        0.9789197954
 C          0.2082757738        4.1200928321       -0.7758419008
 H         -0.4271474136        4.7743585651       -1.3747767410
 H          1.1880100639        4.5967008838       -0.6998551961
 C          0.4158074925        2.7916581911       -1.5055811550
 H          0.9294365903        2.0978810577       -0.8353960804
 H          1.0699610298        2.9694701910       -2.3636618352
 C         -0.8556543465        2.1107109156       -2.0290847591
 H         -0.5492104511        1.3142413228       -2.7134704971
 H         -1.4564532750        2.8318742350       -2.5879834027
 H         -2.1703281956        4.1385344861        1.7831265324
 H         -1.9681974241        5.4204315280        0.5812489434
 H         -2.6122880849        3.9500509081       -1.2237763394
 H         -3.8065645007        3.7795389405        0.0771177150
 O         -3.2642285117        1.5063846608        0.8036455887
 C         -3.1749205912        0.1401794179        1.0128868087
 O         -3.8680615077       -0.2786785730        1.9630299030
 O         -0.7505563513       -0.6494766621       -1.5569193643
 C         -2.2991468661       -2.1117632896        0.4410217375
 C         -0.8601787642       -2.5674453414        0.4358191628
 C         -0.3774244162       -3.6279657395       -0.3197486044
 C          0.9658529252       -3.9618513970       -0.2813264900
 C          1.8570952471       -3.2315936369        0.4828585133
 C          1.3825307140       -2.1677097311        1.2417094374
 C          0.0310637576       -1.8691488782        1.2419250630
 H         -0.3246152217       -1.0415671414        1.8393602587
 N          2.2498384865       -1.3609482059        2.0097039793
 S          2.3915171290        0.2439770920        1.5418801245
 O          3.3147244932        0.8330787023        2.4887808577
 O          1.0875443287        0.8483673299        1.4640227515
 C          3.1700534953        0.1758687839       -0.0629239394
 C          4.5166662900        0.4741555078       -0.1514770591
 C          5.1485819408        0.3753193675       -1.3799967715
 C          4.4275828986       -0.0281536353       -2.4940125963
 C          3.0790883996       -0.3292755087       -2.3862928684
 C          2.4371337295       -0.2299106197       -1.1605922350
 H          1.3853441551       -0.4535871183       -1.0648640691
 H          2.5112122774       -0.6437481978       -3.2471679339
 H          4.9182765785       -0.1077026071       -3.4513107586
 H          6.1972623328        0.6109815798       -1.4642100918
 H          5.0333833958        0.7853599181        0.7421292080
 H          3.1763682763       -1.7514131834        2.1181031151
 H          2.9097137994       -3.4722870717        0.4882335943
 H          1.3267473250       -4.7883778083       -0.8742437631
 H         -1.0465876794       -4.1805471240       -0.9584121199
 H         -2.6841763601       -2.2299087091        1.4681321806
 C         -3.2011604530       -2.9420223613       -0.4608716217
 C         -4.4193960566       -2.3450857133       -1.0983171155
 C         -3.2470582073       -2.7365658901       -1.9441246438
 H         -3.3436081164       -3.6043905015       -2.5799380264
 H         -2.6268190700       -1.9568210035       -2.3562746512
 H         -5.3160068767       -2.9448074387       -1.1467748658
 H         -4.6074323584       -1.2937565001       -0.9338340608
 H         -3.3030940619       -3.9623248668       -0.1042007823
