  62
        -98.94231274
 C          0.7127385636        1.4975687667        0.1260290288
 C          1.4315942053        0.5415074775        0.8765930733
 C          2.3220118685       -0.3533877088        0.1187141743
 C          2.3572925617       -0.2615481047       -1.2221070886
 C          3.1175170094       -1.1195312475       -2.2042968736
 C          4.5553534187       -1.5138953752       -1.8453250553
 C          5.3462408293       -0.4365241773       -1.0891698331
 H          6.2972741525       -0.2706703904       -1.5984840381
 H          4.7982828342        0.5072408737       -1.1062833361
 C          5.6481140144       -0.8253090752        0.3595687967
 H          6.4846494433       -0.2205861741        0.7175622523
 H          5.9656419748       -1.8699328091        0.3833548005
 C          4.4945862481       -0.6287295747        1.3418020377
 H          4.3078150471        0.4392567434        1.4826753420
 H          4.8060123538       -1.0301775931        2.3089943961
 C          3.1617567428       -1.2858332411        0.9446196101
 H          3.3244222050       -2.2378049432        0.4446915623
 H          2.5922675746       -1.4584239446        1.8615764529
 H          4.5476950134       -2.4310562673       -1.2583726206
 H          5.0599363614       -1.7470658530       -2.7846072872
 H          2.5276232850       -2.0239808891       -2.3859929283
 H          3.1160702507       -0.5501283975       -3.1373112369
 O          1.6277286329        0.6626515216       -1.9095460008
 C          0.7918521706        1.5578199419       -1.2649090062
 O          0.1991082747        2.3493158424       -2.0233798504
 O          1.3239799236        0.4271197201        2.1277132621
 C         -0.2433698670        2.4314501761        0.8452464153
 C         -1.6434918163        2.1995882609        0.3332693831
 C         -2.5336750579        3.2220889978        0.0330112849
 C         -3.7866038367        2.9295789293       -0.4783244185
 C         -4.1682105225        1.6227476438       -0.7189188052
 C         -3.2887684452        0.5917074950       -0.4072305685
 C         -2.0548102604        0.8858062016        0.1457841052
 H         -1.3784375904        0.0792586545        0.3906044042
 N         -3.6318432529       -0.7505420140       -0.6273921614
 S         -2.4473943070       -1.8448724149       -1.0775975871
 O         -1.4097103060       -1.2414609490       -1.8808327466
 O         -3.1851865405       -2.9227883714       -1.7062279868
 C         -1.7856684950       -2.4473156748        0.4604846861
 C         -0.4296360841       -2.6821759738        0.5652026050
 C          0.0688645086       -3.2176928908        1.7421013325
 C         -0.7918482814       -3.4983474998        2.7912911978
 C         -2.1511587553       -3.2518020094        2.6722369523
 C         -2.6576288079       -2.7280082074        1.4939679014
 H         -3.7078680075       -2.5293029297        1.3612182220
 H         -2.8167304682       -3.4683315814        3.4922244003
 H         -0.3980255222       -3.9103719864        3.7068947544
 H          1.1254483705       -3.4097036710        1.8343844099
 H          0.2094823697       -2.4276386924       -0.2668399996
 H         -4.4929159731       -0.8960597903       -1.1342651434
 H         -5.1324215387        1.3985486869       -1.1490183895
 H         -4.4678673735        3.7332067262       -0.7135783611
 H         -2.2423371375        4.2484791057        0.1846444063
 H         -0.2057651388        2.1323853056        1.9036775488
 C          0.2160870638        3.8691524696        0.7252531806
 C         -0.0974537793        4.8589091166        1.8064018365
 C          1.3040542537        4.3589569367        1.6319644650
 H          2.0478382074        5.0298985508        1.2290035637
 H          1.6935551072        3.6610262333        2.3586357363
 H         -0.3144764162        5.8782167808        1.5245222967
 H         -0.6570272678        4.5066505403        2.6595033842
 H          0.2269405646        4.2153390671       -0.3024006526
