  62
        -98.94056151
 C          2.3412478296       -0.1766211595       -0.2758337073
 C          3.5121185437       -0.5411110113       -0.9824380582
 C          4.7262617783        0.2140214713       -0.6470282345
 C          4.6557056213        1.1979611844        0.2683899278
 C          5.8246850599        2.0098391529        0.7446308675
 C          6.4817439980        1.3675568498        1.9744596859
 C          6.7770820555       -0.1232600733        1.8093671817
 H          5.8328099296       -0.6670380689        1.7306645775
 H          7.2663092792       -0.4611004923        2.7255426075
 C          7.6607436407       -0.4655829993        0.6016999819
 H          8.4219402160       -1.1823402912        0.9168854049
 H          8.1808688582        0.4290933581        0.2578057638
 C          6.9121418385       -1.0988905532       -0.5725092482
 H          6.3140613221       -1.9407512214       -0.2145379442
 H          7.6515539639       -1.4970606222       -1.2724595839
 C          5.9940946822       -0.1582548108       -1.3632718438
 H          5.6817045755       -0.6839114518       -2.2703723145
 H          6.5480203940        0.7354287341       -1.6574054340
 H          5.8117549554        1.4908993944        2.8284820099
 H          7.4086264981        1.9023904078        2.1893106347
 H          5.4651769448        3.0044002960        1.0135780984
 H          6.5497599676        2.1013420883       -0.0616540358
 O          3.5064064963        1.5371406761        0.9069115302
 C          2.3230450081        0.8561522239        0.6613301095
 O          1.3505431424        1.2615383799        1.3255593857
 O          3.5385490477       -1.4505672681       -1.8552599495
 C          1.0538663247       -0.9305315243       -0.5528814290
 C         -0.0221922682        0.0182968543       -1.0190064817
 C          0.2562282674        0.8801434837       -2.0777442688
 C         -0.7009898014        1.7594928540       -2.5434813527
 C         -1.9623309846        1.7895316365       -1.9743353918
 C         -2.2503637775        0.9353224879       -0.9173495194
 C         -1.2833368136        0.0563021389       -0.4476686928
 H         -1.5367457875       -0.5940309793        0.3724168404
 N         -3.5116586562        0.9599247631       -0.3012633903
 S         -4.1575803337       -0.4854726656        0.2824755363
 O         -3.6276162210       -0.7441513019        1.5974352374
 O         -3.9841489114       -1.5362411212       -0.6952087621
 C         -5.8796884974       -0.0375600756        0.4073537878
 C         -6.3017302981        0.6738388868        1.5147717558
 C         -7.6327719112        1.0494475550        1.6021918051
 C         -8.5147689645        0.7101973422        0.5867612801
 C         -8.0772506451       -0.0058033548       -0.5173131814
 C         -6.7469547606       -0.3834874576       -0.6117614429
 H         -6.3637078352       -0.9480018573       -1.4465305382
 H         -8.7660214380       -0.2712637551       -1.3030506708
 H         -9.5503369475        1.0030399531        0.6581935132
 H         -7.9770733870        1.6032634093        2.4606707211
 H         -5.5823670768        0.9065611078        2.2826847009
 H         -4.1945861748        1.4948568752       -0.8199916906
 H         -2.7122371750        2.4745961388       -2.3396642170
 H         -0.4677175666        2.4228403177       -3.3629017291
 H          1.2394337189        0.8505567317       -2.5280195614
 H          1.2869665124       -1.6134308533       -1.3842399215
 C          0.6539324330       -1.7551637254        0.6520618405
 C         -0.1873845683       -2.9830573511        0.4787706449
 C          1.2596693681       -3.1115500313        0.8461994526
 H          1.5123729037       -3.4250402562        1.8479951081
 H          1.9494279792       -3.4589276133        0.0907945322
 H         -0.9364575665       -3.2020165919        1.2254547203
 H         -0.4862076314       -3.2457131964       -0.5250946833
 H          0.4905408284       -1.1488451389        1.5369503720
