  62
        -98.94532361
 C          1.5722075583        0.9622705915        0.3346299011
 C          2.8906772002        1.1273321877        0.8262393651
 C          3.9714057831        0.7954133274       -0.1078144859
 C          3.6726949301        0.3647228481       -1.3469284541
 C          4.6632742353       -0.0027563861       -2.4183306750
 C          5.1935756986       -1.4390893131       -2.3103972875
 C          6.1741702163       -1.6868078961       -1.1632870258
 H          6.6295047591       -2.6638299634       -1.3371067348
 H          6.9719249405       -0.9444170988       -1.2022775913
 C          5.5323107943       -1.6833167363        0.2312178708
 H          5.8988528590       -2.5391119868        0.8027148220
 H          4.4505826840       -1.8044638462        0.1345984229
 C          5.8195856339       -0.4297594940        1.0578026640
 H          5.2880753611       -0.5173404306        2.0087892783
 H          6.8885441878       -0.3707887877        1.2741272983
 C          5.3828103516        0.8805499067        0.3898266935
 H          5.4244270882        1.6766362347        1.1371673151
 H          6.0598821375        1.1305907113       -0.4264907846
 H          4.3431860040       -2.1189367099       -2.2168829335
 H          5.7011621132       -1.6704158719       -3.2497881431
 H          5.4990155730        0.6973269189       -2.4014989970
 H          4.1416559016        0.1001093472       -3.3723067770
 O          2.3935260526        0.2288904667       -1.7858044547
 C          1.3130301152        0.5016474638       -0.9566201535
 O          0.2043855845        0.3120825279       -1.4910461867
 O          3.1509295700        1.5343622492        1.9899828942
 C          0.4121103639        1.2497501386        1.2733790752
 C         -0.2552757079       -0.0587806176        1.6196133586
 C          0.4614126256       -1.0053805461        2.3490146460
 C         -0.1023563531       -2.2249837699        2.6675102350
 C         -1.3864514340       -2.5343073442        2.2501947821
 C         -2.1073462772       -1.6010544469        1.5181466006
 C         -1.5457376279       -0.3659397973        1.2220898323
 H         -2.1237285592        0.3513952286        0.6679066928
 N         -3.4196348152       -1.8664479314        1.0818860544
 S         -3.7228643334       -1.7487418553       -0.5713331431
 O         -4.9542280830       -2.4901752901       -0.7571991021
 O         -2.5916383070       -2.2065626772       -1.3435469709
 C         -4.0495583675       -0.0231436741       -0.8547429386
 C         -5.1881969160        0.5169956899       -0.2889438219
 C         -5.4649349246        1.8588854485       -0.4934941729
 C         -4.6050878066        2.6311004981       -1.2605893387
 C         -3.4693761514        2.0708099677       -1.8250854497
 C         -3.1827502127        0.7290820714       -1.6228257942
 H         -2.2894507406        0.2687554507       -2.0170834433
 H         -2.7961082044        2.6708182076       -2.4171343471
 H         -4.8184211600        3.6766577000       -1.4192779720
 H         -6.3459695609        2.2990826483       -0.0550607193
 H         -5.8316128700       -0.1217939724        0.2927132902
 H         -3.7971990942       -2.7364343540        1.4324463737
 H         -1.8245072098       -3.4925873010        2.4869991544
 H          0.4631657031       -2.9470562474        3.2374602054
 H          1.4691279494       -0.7683708581        2.6620322942
 H          0.8740443572        1.6465056021        2.1888892905
 C         -0.5299560931        2.2890191864        0.7061707197
 C         -1.4995479769        2.9868092567        1.6113372765
 C         -0.3280272365        3.7330710990        1.0492595441
 H         -0.5050626043        4.4728446469        0.2833758839
 H          0.4881982234        3.9793864104        1.7125907423
 H         -2.4847437619        3.2115364012        1.2315680591
 H         -1.4786803430        2.7257696188        2.6584651120
 H         -0.8544391379        2.0593609981       -0.3013518856
