  62
        -98.93452425
 C          2.3372708814        0.7952149208       -0.1304533014
 C          3.5517166070        1.1613626674        0.4934609364
 C          4.7779611769        0.5518852649       -0.0495231058
 C          4.6794453180       -0.2912167388       -1.0922082925
 C          5.7898433248       -1.0552901239       -1.7590149164
 C          5.9240013636       -2.4609073194       -1.1488674455
 C          6.8273739125       -2.5460356928        0.0808430798
 H          6.7286721260       -3.5553617531        0.4869003833
 H          7.8667926360       -2.4173513571       -0.2281215799
 C          6.5191736366       -1.5375589865        1.1906754126
 H          5.4394779214       -1.4694121130        1.3360031269
 H          6.9464170986       -1.9207470305        2.1194120730
 C          7.0989057300       -0.1419068449        0.9162445316
 H          7.8057095999       -0.2064316066        0.0892817505
 H          7.6696292443        0.1897567061        1.7860970784
 C          6.0619557631        0.9531118249        0.6244419125
 H          5.7465123365        1.4157580372        1.5649538367
 H          6.5343200702        1.7437308917        0.0320527893
 H          4.9203625160       -2.8115914922       -0.8946807449
 H          6.3228866973       -3.1359977304       -1.9086571838
 H          5.5087178199       -1.1576295825       -2.8091567508
 H          6.7256953580       -0.5079774439       -1.6980480233
 O          3.4876301546       -0.6127923651       -1.6676217709
 C          2.2914595284       -0.0927052776       -1.2045880174
 O          1.2850851883       -0.4887539276       -1.8224405292
 O          3.6094263652        1.9554456086        1.4716777298
 C          1.0376900297        1.3832708967        0.3878156347
 C          0.1138100335        0.2784614948        0.8367363407
 C          0.5805224361       -0.6436765286        1.7712623200
 C         -0.2264549834       -1.6737650821        2.2117518946
 C         -1.5208112307       -1.8015952890        1.7383469753
 C         -1.9955048509       -0.8893374126        0.8041993790
 C         -1.1806388779        0.1449574697        0.3627466753
 H         -1.5767657059        0.8377557247       -0.3601254928
 N         -3.2931548288       -1.0136415095        0.2828628784
 S         -4.1577312080        0.3824731135       -0.1029409980
 O         -3.7504468294        0.8512101243       -1.4032226251
 O         -4.0648705186        1.3372531732        0.9790516018
 C         -5.8086084196       -0.2861444171       -0.1975733634
 C         -6.1899829149       -0.9421866529       -1.3529146944
 C         -7.4609798430       -1.4897103767       -1.4238600234
 C         -8.3247134780       -1.3731152071       -0.3447075736
 C         -7.9286021724       -0.7106030811        0.8073274565
 C         -6.6581551605       -0.1616657557        0.8854382393
 H         -6.3098957790        0.3694732380        1.7566221338
 H         -8.6035597581       -0.6190029078        1.6429937081
 H         -9.3138365544       -1.7991143949       -0.4034491137
 H         -7.7730553387       -2.0033722794       -2.3188600290
 H         -5.4875357860       -0.9997354970       -2.1681981595
 H         -3.8613466281       -1.6743173764        0.7951296927
 H         -2.1533373596       -2.6058846711        2.0821816280
 H          0.1510142583       -2.3805148189        2.9355779620
 H          1.5901921228       -0.5389273156        2.1453021470
 H          1.3155996010        1.9758092770        1.2726042555
 C          0.4240247233        2.3085014026       -0.6407644277
 C         -0.5053894453        3.4011375619       -0.2074410917
 C          0.8692510396        3.7376185722       -0.7001309316
 H          0.9711035497        4.2058573118       -1.6675781999
 H          1.6069119160        4.0573272286        0.0213822194
 H         -1.3547825276        3.6313847279       -0.8335626434
 H         -0.7072805648        3.4943181445        0.8492328904
 H          0.2172119302        1.8098630579       -1.5818708026
