  62
        -98.93643168
 C         -2.3784364296       -1.2932794061       -0.0759670738
 C         -3.0955902954       -0.5212143516        0.8673352625
 C         -3.9419484348        0.5463741816        0.3184053773
 C         -3.9945395914        0.7342820948       -1.0128734521
 C         -4.8458371074        1.7362056531       -1.7474615819
 C         -4.5156175022        3.2219485367       -1.5062632046
 C         -5.3458463198        3.8831767444       -0.3990850953
 H         -5.6113537241        4.8938150201       -0.7157086317
 H         -6.2815987827        3.3343396547       -0.2867104472
 C         -4.6606774784        4.0094109077        0.9650746050
 H         -3.9561591468        4.8438614473        0.9352773080
 H         -5.4271541168        4.2533617016        1.7037692881
 C         -3.8901043458        2.7778353378        1.4411567555
 H         -3.6214481917        2.9268759834        2.4891764942
 H         -2.9489404797        2.6990659704        0.8908552974
 C         -4.6498253407        1.4452575654        1.2901964757
 H         -4.6702666479        0.9182017654        2.2462928225
 H         -5.6763726294        1.6216173614        0.9727359248
 H         -3.4507231096        3.3298167812       -1.3014588221
 H         -4.7188375802        3.7457555380       -2.4415746406
 H         -4.7097800488        1.5093074215       -2.8067442981
 H         -5.8936490090        1.5537101562       -1.4986264402
 O         -3.2786393794       -0.0250555452       -1.8862049828
 C         -2.4406322965       -1.0389816556       -1.4463518985
 O         -1.8256446737       -1.6259303132       -2.3551999520
 O         -3.0318694699       -0.7145535816        2.1126269147
 C         -1.4709050895       -2.4043664414        0.4200261624
 C         -0.0360804217       -2.0879052416        0.0738150310
 C          0.8230359056       -2.9851768350       -0.5453816109
 C          2.1283890479       -2.6213896397       -0.8302010145
 C          2.6055441461       -1.3660780919       -0.5027630640
 C          1.7597368428       -0.4655521834        0.1325032549
 C          0.4545101522       -0.8336260203        0.4180661165
 H         -0.2039947669       -0.1313982328        0.9157353159
 N          2.2314832524        0.8167816835        0.4653674551
 S          3.6735993733        0.9334461259        1.3194040230
 O          3.8974484973       -0.2333953231        2.1409710717
 O          3.6002941344        2.2021683143        2.0107149645
 C          4.9159591472        1.0361514074        0.0487319309
 C          5.9583029478        0.1303734417        0.0276010813
 C          6.9175417825        0.2365259804       -0.9676194919
 C          6.8182169587        1.2413639972       -1.9176935890
 C          5.7663086879        2.1447333958       -1.8807376015
 C          4.8047504488        2.0448243481       -0.8880727704
 H          3.9742703754        2.7278451390       -0.8216413542
 H          5.6921830164        2.9248084066       -2.6212734833
 H          7.5649020285        1.3214258581       -2.6918634890
 H          7.7360751060       -0.4644671328       -0.9981697314
 H          5.9912480943       -0.6374676227        0.7840463563
 H          1.5279279111        1.4095971952        0.8815964575
 H          3.6189545773       -1.0785124240       -0.7299548255
 H          2.7828022730       -3.3263740458       -1.3196703556
 H          0.4701107474       -3.9677229464       -0.8113335229
 H         -1.5636256373       -2.3881262008        1.5166620139
 C         -1.9417904939       -3.7502765752       -0.0873104282
 C         -1.6490897538       -4.9939181879        0.6961143812
 C         -3.0451256703       -4.4523272523        0.6440021888
 H         -3.7867368668       -4.9862442040        0.0691296788
 H         -3.4415262354       -3.9698909708        1.5257181682
 H         -1.4337791201       -5.9043256855        0.1575556496
 H         -1.0976051064       -4.8854401964        1.6178869565
 H         -1.9410890788       -3.8115370286       -1.1695145112
