  62
        -98.93615940
 C          1.4082662900        1.3798760474        0.3119890078
 C          2.0993401341        0.9099430479       -0.8284115504
 C          3.1379215684       -0.1139503296       -0.5925235730
 C          3.3729441215       -0.5229715494        0.6682190369
 C          4.3341312163       -1.5911899220        1.1116524120
 C          3.7801268386       -3.0115033297        0.8783332371
 C          2.9433474657       -3.1836889200       -0.3892445278
 H          2.4470095589       -4.1564922366       -0.3344047715
 H          2.1590440471       -2.4237782431       -0.4065220852
 C          3.7263956753       -3.1354804458       -1.7001729902
 H          4.3792784093       -4.0102678151       -1.7530402449
 H          3.0066451228       -3.2089110068       -2.5198198213
 C          4.5878051925       -1.8926471812       -1.9177908834
 H          5.0044853586       -1.9581773313       -2.9274644798
 H          5.4320893251       -1.8979898030       -1.2335747867
 C          3.8454403066       -0.5591363009       -1.8488052367
 H          4.5526554841        0.2393700935       -2.1061778507
 H          3.0806947422       -0.5371951734       -2.6335323786
 H          4.6134003039       -3.7152125161        0.8635746937
 H          3.1409631891       -3.2641124983        1.7272540412
 H          5.2886904117       -1.4513797068        0.6122347807
 H          4.4951113480       -1.4520008959        2.1825332070
 O          2.6860388078       -0.0365971369        1.7388441122
 C          1.6944603441        0.9165376086        1.5955637452
 O          1.1486237770        1.2618457329        2.6611840563
 H         -0.3995362373       -0.1504852473       -0.3355584392
 C         -1.0656278791        0.5530932691       -0.8203137305
 C         -0.8290724408        1.9141180505       -0.6911264302
 C         -1.7086706722        2.7924288720       -1.3158307624
 C         -2.7878370488        2.3194510269       -2.0418272088
 C         -3.0154475970        0.9601850060       -2.1683915508
 C         -2.1371537469        0.0767623487       -1.5606210709
 N         -2.3856446091       -1.3181612781       -1.6545670973
 S         -3.5170483309       -1.8456525081       -0.5329588400
 O         -3.4874074021       -3.2896440670       -0.5790300456
 O         -4.7775675729       -1.2176155970       -0.8318877055
 C         -2.8832057092       -1.2567548614        1.0259749760
 C         -1.9678953647       -2.0346130585        1.7069458379
 C         -1.3713739994       -1.5237049331        2.8481511174
 C         -1.6862721260       -0.2437909404        3.2783452008
 C         -2.6072362531        0.5238418609        2.5827854953
 C         -3.2108732666        0.0177098721        1.4429164196
 H         -3.9262300775        0.5867105838        0.8712114988
 H         -2.8442323642        1.5206149729        2.9182264459
 H         -1.1963970703        0.1631213523        4.1483654888
 H         -0.6506775428       -2.1145262505        3.3910151090
 H         -1.7449032530       -3.0230167920        1.3361394721
 H         -1.5465143210       -1.8705905162       -1.5415860150
 H         -3.8592227618        0.5711132752       -2.7141286725
 H         -3.4614446855        3.0178012589       -2.5143420112
 H         -1.5482978009        3.8547949237       -1.2272335721
 C          0.3080823964        2.4108056199        0.1706091659
 H         -0.0903650541        2.5642988752        1.1852318370
 C          0.8800490712        3.7247970136       -0.3293442535
 C          0.3640219009        5.0320645832        0.1904585435
 C          1.7196553557        4.5451277931        0.6021874809
 H          2.5932272001        5.0425630072        0.2084313770
 H          1.8459798329        4.1735722732        1.6090279181
 H          0.3073483646        5.8698817116       -0.4882701684
 H         -0.4231736067        5.0053051621        0.9288903280
 H          1.1909199631        3.6724322931       -1.3663205091
 O          1.8524242446        1.3064486743       -1.9979963871
