  62
        -98.93782050
 C          1.7833471867        1.1520302619        0.3523905547
 C          2.1092758349        0.1104376303       -0.5447109547
 C          3.5412629317       -0.0654653260       -0.8657843030
 C          4.4390443440        0.7672843035       -0.3067416037
 C          5.9377096883        0.7512873687       -0.4490266810
 C          6.5972961635       -0.3636003268        0.3794504526
 C          5.8933903733       -1.7166703835        0.3141068707
 H          6.3849980528       -2.3818580532        1.0289859800
 H          4.8581114156       -1.6000003693        0.6403533010
 C          5.9198584579       -2.3989691783       -1.0514939678
 H          6.9578259746       -2.5575651489       -1.3527401986
 H          5.4546861140       -3.3810003248       -0.9326934695
 C          5.1945105386       -1.6642984915       -2.1805676214
 H          5.0936529290       -2.3665758838       -3.0134129672
 H          5.7870050329       -0.8315917413       -2.5498726974
 C          3.7836760305       -1.1964640390       -1.8359691611
 H          3.2783501601       -0.9020973137       -2.7641861434
 H          3.2059545464       -2.0467137068       -1.4548019625
 H          7.6318359541       -0.4728097119        0.0500130141
 H          6.6075057683       -0.0453544369        1.4247201182
 H          6.2120808710        0.6712662604       -1.4965651043
 H          6.2980092635        1.7151396764       -0.0829959510
 O          4.0742931897        1.7642548754        0.5498145956
 C          2.7579261959        1.9821694370        0.9038247064
 O          2.5838118580        2.9234765212        1.7043248888
 H         -2.0689999616        0.1653073845        0.1610840056
 C         -1.5067744845       -0.3390939215        0.9286387343
 C         -0.2697180370        0.1455593922        1.3241500405
 C          0.4250707255       -0.5339348907        2.3220377585
 C         -0.0941199953       -1.6806713666        2.8892688577
 C         -1.3193262024       -2.1737149459        2.4757276907
 C         -2.0282946436       -1.4971127246        1.4910187217
 N         -3.2951163718       -1.9466545827        1.0960720294
 S         -3.8399111558       -1.7890708274       -0.4765422557
 O         -4.9572747049       -2.7081878081       -0.5511860821
 O         -2.7924218443       -1.9909130294       -1.4484643495
 C         -4.4688417695       -0.1262628946       -0.5728853187
 C         -4.2588483748        0.6027794314       -1.7263315639
 C         -4.7958586142        1.8774385888       -1.8219175378
 C         -5.5294929180        2.3979065809       -0.7668076153
 C         -5.7304281525        1.6525684681        0.3850894767
 C         -5.2007906393        0.3760259669        0.4849121038
 H         -5.3389269583       -0.2319852143        1.3630743512
 H         -6.2994573656        2.0621730327        1.2039779144
 H         -5.9438694302        3.3907429110       -0.8432790951
 H         -4.6395123888        2.4576202955       -2.7177677438
 H         -3.6704259843        0.1636760847       -2.5167370794
 H         -3.5843747483       -2.8231395900        1.5047441707
 H         -1.7233878457       -3.0747286955        2.9117231989
 H          0.4606930575       -2.2002020556        3.6562154660
 H          1.3856398853       -0.1514535919        2.6407364551
 C          0.3372796013        1.3984075461        0.7417865948
 H          0.3666739464        2.1612072923        1.5342001133
 C         -0.4363255916        1.9548793829       -0.4352506332
 C         -1.5860686087        2.8873079690       -0.2025540698
 C         -0.2988359959        3.4101277920       -0.7638403453
 H         -0.2674982668        3.7028843421       -1.8025174880
 H          0.3397091526        4.0019603759       -0.1240051726
 H         -2.4434419489        2.8228420702       -0.8551057026
 H         -1.8280865507        3.1328140534        0.8202857234
 H         -0.4969565129        1.2562857083       -1.2628253611
 O          1.2488648805       -0.6535358859       -1.0573485864
