  62
        -98.94468731
 C         -2.0126406743       -0.7545766002        0.5615296172
 C         -1.9520546026       -0.0500507966       -0.6650090141
 C         -2.0011840677        1.4122892619       -0.5620117708
 C         -2.0399772612        1.9965007810        0.6487872312
 C         -2.0438123852        3.4772177339        0.9183257280
 C         -3.4308767192        4.1287438204        0.8281371268
 C         -3.9918448960        4.2728080452       -0.5871038422
 H         -3.2521851227        4.7638026715       -1.2200500828
 H         -4.8578928441        4.9343104777       -0.5220178494
 C         -4.4278080225        2.9503222738       -1.2329537731
 H         -5.4082593021        3.0773800139       -1.6971506147
 H         -4.5344647163        2.1855349660       -0.4603011749
 C         -3.4788772292        2.4299788668       -2.3126690135
 H         -3.4603032684        3.1278360829       -3.1525937424
 H         -3.8635303415        1.4738593262       -2.6760646188
 C         -2.0389223029        2.2072194868       -1.8316576896
 H         -1.5316604340        3.1623258968       -1.6954074180
 H         -1.5010757406        1.6345759154       -2.5913276005
 H         -3.3503538143        5.1255066983        1.2678628890
 H         -4.1269391235        3.5502754196        1.4398119509
 H         -1.6652981132        3.6066122398        1.9348621257
 H         -1.3581515943        3.9721566582        0.2295786573
 O         -2.0625415330        1.2836428610        1.8080027423
 C         -2.0520190386       -0.1016646985        1.7915717610
 O         -2.0833212222       -0.6299922728        2.9238068038
 H          0.4668144438       -1.1733245893        0.9538227792
 C          0.5211895458       -1.9746130118        0.2297818253
 C         -0.6279258938       -2.6831358079       -0.0976802543
 C         -0.5281845327       -3.7216023573       -1.0141609574
 C          0.6869540053       -4.0113163281       -1.6112442838
 C          1.8166217696       -3.2693143897       -1.3208667618
 C          1.7306436789       -2.2414363039       -0.3877680926
 N          2.8596090091       -1.4756710171       -0.0455407656
 S          2.6248169742        0.1509174417        0.3473706788
 O          2.2590642369        0.2432374465        1.7399710286
 O          1.7297600125        0.7791564650       -0.5977415607
 C          4.2852288721        0.7654740699        0.1278164650
 C          4.6239837588        1.3983908417       -1.0531583203
 C          5.9257869877        1.8420520009       -1.2266699792
 C          6.8622329694        1.6431261134       -0.2233708355
 C          6.5072826802        1.0066037797        0.9568623992
 C          5.2071796278        0.5618972352        1.1373070191
 H          4.8810615885        0.0711114882        2.0394689607
 H          7.2369191740        0.8560688417        1.7359943392
 H          7.8743826294        1.9890942865       -0.3609582857
 H          6.2032468743        2.3401867721       -2.1416010107
 H          3.8591320860        1.5366981747       -1.8006506339
 H          3.6222427561       -1.5905795948       -0.6996107454
 H          2.7561806294       -3.4796149221       -1.8087230459
 H          0.7499369178       -4.8155430054       -2.3285451906
 H         -1.4040987503       -4.2939415175       -1.2724316474
 C         -1.9215993573       -2.2700886007        0.5634821427
 H         -1.8808829107       -2.5730098145        1.6206709321
 C         -3.1506278808       -2.8808159429       -0.0767957532
 C         -3.6415740928       -4.2276331054        0.3595938398
 C         -4.4057950695       -2.9942099561        0.7333115394
 H         -5.3513493721       -2.8034426888        0.2484863989
 H         -4.3638918505       -2.6538542517        1.7580769137
 H         -3.0883028538       -4.7334812087        1.1363783926
 H         -4.0678151670       -4.8862607414       -0.3819700087
 H         -3.2508414404       -2.6089628823       -1.1212789637
 O         -1.8641784992       -0.6129837888       -1.7878616910
