  62
        -98.93893985
 C          2.4611983445        0.9609813663        0.3808935613
 C          2.8111755231       -0.2129995306        1.1003511795
 C          4.1869947881       -0.6988079543        0.9396932943
 C          5.0356867828       -0.0110880906        0.1546133211
 C          6.4537319714       -0.4075372504       -0.1351488770
 C          6.5401730664       -1.2872517899       -1.3900487340
 C          5.5471313500       -2.4493890306       -1.3981912569
 H          4.5314926018       -2.0506571542       -1.4547114356
 H          5.7199316696       -3.0187018374       -2.3140181089
 C          5.6559005582       -3.3853398489       -0.1863096013
 H          6.6188122922       -3.2444381550        0.3058798653
 H          5.6191871297       -4.4186857577       -0.5374908754
 C          4.5342242274       -3.2251869576        0.8418361438
 H          3.5649245559       -3.2706699923        0.3384638085
 H          4.5831539665       -4.0708072709        1.5331647141
 C          4.5783937537       -1.9440519761        1.6844075148
 H          3.8480916032       -2.0515830532        2.4918721292
 H          5.5688585458       -1.8304744383        2.1299853706
 H          7.5574307541       -1.6746015832       -1.4704396726
 H          6.3433087900       -0.6629543586       -2.2645046013
 H          7.0373383839        0.5001254848       -0.2973271535
 H          6.8581226582       -0.9396888201        0.7236784520
 O          4.6738903283        1.1145051331       -0.5069235457
 C          3.3851858880        1.6235322232       -0.4282420538
 O          3.2212032216        2.6493499722       -1.1177899671
 H         -1.2706350008        0.0818941933        0.7435719512
 C         -1.0499296488        0.3691008332       -0.2743858803
 C          0.1203409845        1.0539746813       -0.5666461675
 C          0.3857836061        1.3920831045       -1.8895485499
 C         -0.5063314408        1.0512181586       -2.8897744942
 C         -1.6873051211        0.3946989443       -2.5908971256
 C         -1.9602269986        0.0505537446       -1.2724198934
 N         -3.1437101835       -0.6229436884       -0.9314681160
 S         -3.8781531086       -0.2258306148        0.5380340676
 O         -3.8075097891        1.2010185553        0.7556083742
 O         -3.3205578217       -1.0575640150        1.5751256756
 C         -5.5606763410       -0.7171396237        0.2099756285
 C         -5.9100562985       -2.0460650138        0.3592260702
 C         -7.2104799566       -2.4320565506        0.0754109188
 C         -8.1340466510       -1.4890427561       -0.3509988927
 C         -7.7690821637       -0.1588021614       -0.4941486136
 C         -6.4699707061        0.2340753321       -0.2130318993
 H         -6.1432325550        1.2578206399       -0.3006509118
 H         -8.4901510940        0.5724948467       -0.8220765164
 H         -9.1456320791       -1.7923066354       -0.5700613642
 H         -7.4988752021       -3.4646007275        0.1887927884
 H         -5.1609359380       -2.7407232657        0.7021869274
 H         -3.8098681156       -0.6602826603       -1.6908586455
 H         -2.3900074455        0.1465222038       -3.3718927692
 H         -0.2871730422        1.3161201122       -3.9132619921
 H          1.2932724099        1.9274616526       -2.1224203682
 C          1.0398331995        1.4624075232        0.5600374507
 H          0.6744262335        0.9669406418        1.4707852587
 C          0.9403621139        2.9637231377        0.7639488738
 C         -0.3300207846        3.5320881629        1.3193458197
 C          0.9149029113        3.5203236908        2.1539231174
 H          1.4182042562        4.4565987096        2.3432141060
 H          0.9716286315        2.8194957358        2.9743984014
 H         -0.6800717201        4.4774816419        0.9337746593
 H         -1.1249074823        2.8426192032        1.5664707542
 H          1.4572182322        3.5343638085        0.0033910540
 O          2.0056648379       -0.8236958827        1.8547708842
