  62
        -98.94000424
 C          2.5106469795        1.2808938798       -0.1537730485
 C          2.2396385704        0.0760764851       -0.8471453074
 C          3.3823797562       -0.8320552396       -1.0135218836
 C          4.5937006549       -0.4800061116       -0.5465393335
 C          5.8520519173       -1.2993084210       -0.6415550731
 C          5.9942101387       -2.3462853298        0.4720811387
 C          5.0607838602       -3.5522487436        0.3564988291
 H          5.1480178953       -3.9839599293       -0.6408968010
 H          5.4152364598       -4.3005767333        1.0680089288
 C          3.5866009802       -3.2465953295        0.6582278644
 H          3.1821413486       -4.0152431780        1.3205823501
 H          3.5106424604       -2.2953327173        1.1902466841
 C          2.6851207535       -3.1938893155       -0.5756271368
 H          2.6422796273       -4.1808342633       -1.0420052363
 H          1.6734150035       -2.9300670451       -0.2540111888
 C          3.1242140755       -2.1721664628       -1.6327294160
 H          4.0097013447       -2.5288035967       -2.1584770828
 H          2.3102499946       -2.0547908797       -2.3527253457
 H          5.8359283826       -1.8548022705        1.4347015445
 H          7.0243889505       -2.7087655430        0.4485673039
 H          5.8979350301       -1.7903829891       -1.6137189401
 H          6.6862883095       -0.5990002097       -0.5644151696
 O          4.8202986698        0.7067589827        0.0772811476
 C          3.7855173809        1.5957774523        0.3179879556
 O          4.1238602946        2.6177049686        0.9489429592
 H         -1.2553211853        1.5368306593       -0.3172563875
 C         -0.8994194074        1.2656938933        0.6615583513
 C          0.3948807153        1.5673028817        1.0524686522
 C          0.8182253493        1.1868095807        2.3244305459
 C         -0.0306616183        0.5118491586        3.1786659125
 C         -1.3158518359        0.1918961929        2.7761977259
 C         -1.7501915297        0.5705513202        1.5119906450
 N         -3.0685544094        0.2878221779        1.1028695085
 S         -3.3348275140       -0.3521863225       -0.4400762214
 O         -2.6091284418       -1.5928176043       -0.5986511470
 O         -3.1081246921        0.6717026549       -1.4261544713
 C         -5.0838630562       -0.6866678757       -0.3213325857
 C         -5.9685609905        0.3650950588       -0.4651506411
 C         -7.3271443393        0.1189050217       -0.3475109029
 C         -7.7766338501       -1.1676667949       -0.0890591453
 C         -6.8772402172       -2.2136687137        0.0509274382
 C         -5.5169240970       -1.9734303599       -0.0642498998
 H         -4.7811926239       -2.7563668325        0.0277763939
 H         -7.2292006046       -3.2134355729        0.2482809679
 H         -8.8346524529       -1.3568214568        0.0007967292
 H         -8.0296852954        0.9290433039       -0.4584937146
 H         -5.5731551900        1.3453544315       -0.6738371861
 H         -3.5499094400       -0.2901107847        1.7808557940
 H         -1.9777200578       -0.3468140282        3.4379182465
 H          0.3115132467        0.2226479729        4.1610987340
 H          1.8297290467        1.4241285557        2.6269627869
 C          1.3884897406        2.2596738429        0.1505364397
 H          1.8488120428        3.0820067792        0.7168229133
 C          0.7854780114        2.8208569524       -1.1182416945
 C          0.0413516120        4.1203704993       -1.0718289594
 C          1.3861622100        4.0495032242       -1.7292473381
 H          1.4399557455        4.1148884910       -2.8056044754
 H          2.2291205324        4.4955864693       -1.2214143767
 H         -0.8324901005        4.2335048824       -1.6953792263
 H         -0.0298173752        4.6192126706       -0.1170436368
 H          0.4267637688        2.0530066452       -1.7940668282
 O          1.1083669690       -0.2333148089       -1.3051603520
