  62
        -98.94502354
 C          0.8071086569        1.5788699814       -1.1257630456
 C          2.1154716034        1.7450837653       -0.6053252011
 C          3.0385437306        0.6213629822       -0.7860587093
 C          2.6157604910       -0.4900438885       -1.4137971436
 C          3.4174097714       -1.7438365274       -1.6338985642
 C          3.4141798368       -2.6839905676       -0.4201032648
 C          4.2922136343       -2.2353915834        0.7490511950
 H          4.3998318499       -3.0938931380        1.4153286241
 H          5.2872060598       -1.9786077679        0.3825606025
 C          3.7146699895       -1.0625320169        1.5539701615
 H          2.6440654378       -0.9743431881        1.3509545427
 H          3.8134382315       -1.2738083300        2.6219367005
 C          4.3934933458        0.2835231935        1.2975389284
 H          5.4260354584        0.2456097723        1.6538182293
 H          3.8643289620        1.0460419288        1.8750734093
 C          4.4015057293        0.7245606342       -0.1712482279
 H          4.7038495261        1.7743941344       -0.2094307034
 H          5.1197362435        0.1322566380       -0.7381292101
 H          2.3860541756       -2.7983692833       -0.0656947320
 H          3.7650001035       -3.6618807590       -0.7592576273
 H          2.9608931377       -2.2646322146       -2.4784936475
 H          4.4443733442       -1.4880947068       -1.8967993222
 O          1.3730699631       -0.5951724803       -1.9462556973
 C          0.4245695577        0.4113217564       -1.7878250071
 O         -0.6767438825        0.1355064912       -2.2966318296
 O          2.4933861614        2.7928675719       -0.0129165734
 C         -0.1922834025        2.6758120691       -0.7970313483
 C         -0.7643147785        2.3817574920        0.5680152243
 C         -0.8086592693        3.3402279477        1.5724398876
 C         -1.2598010813        3.0065885426        2.8384701220
 C         -1.6447742044        1.7109471137        3.1336849985
 C         -1.6084198535        0.7468096421        2.1320239775
 C         -1.2036002266        1.0969758569        0.8547812033
 H         -1.1875855738        0.3449808352        0.0828207726
 N         -1.9772940859       -0.5833313806        2.3742987357
 S         -1.2064777572       -1.8156724605        1.5370968929
 O         -1.4226342334       -2.9893763358        2.3610620821
 O          0.1756266897       -1.4995778712        1.2607592647
 C         -2.1413967060       -2.0074796345        0.0366487868
 C         -3.4888483455       -1.7068894306        0.0368712243
 C         -4.2173836037       -1.9068963669       -1.1238404925
 C         -3.5926674001       -2.4094380884       -2.2548822446
 C         -2.2415459876       -2.7133974025       -2.2357285917
 C         -1.5060425158       -2.5107551735       -1.0794541226
 H         -0.4473090273       -2.7135266121       -1.0336650408
 H         -1.7516654551       -3.0935559986       -3.1176469286
 H         -4.1604059880       -2.5598648833       -3.1596838542
 H         -5.2682032743       -1.6658828562       -1.1444046791
 H         -3.9409499090       -1.3130395153        0.9321344923
 H         -2.1457958071       -0.8221117463        3.3403548036
 H         -1.9610647214        1.4431787996        4.1302288207
 H         -1.2876372587        3.7583847551        3.6125966623
 H         -0.4627381467        4.3422227158        1.3655133316
 H          0.4039586032        3.5987013011       -0.7149973184
 C         -1.2522710594        2.9052684096       -1.8613382345
 C         -2.6765434034        2.4724805647       -1.7085414749
 C         -2.3275908911        3.9269787356       -1.6346328167
 H         -2.6092456545        4.5713179376       -2.4534315298
 H         -2.3657866091        4.3998393101       -0.6648303187
 H         -3.1793040091        2.0975480188       -2.5863108870
 H         -2.9600967195        1.9664816871       -0.7990785446
 H         -0.8380090890        2.8450267025       -2.8621668755
