  62
        -98.94477592
 C         -1.8554718347       -0.7039668231        0.4192116251
 C         -2.4776605591       -0.1499361281       -0.7258916143
 C         -3.5532550490        0.8143225083       -0.4594343082
 C         -3.8505894427        1.1549694869        0.8075376884
 C         -4.9056910956        2.1381558952        1.2366921290
 C         -6.3168134202        1.5404467099        1.3230514617
 C         -6.9817225502        1.2435385521       -0.0216835399
 H         -8.0349914074        1.0393226264        0.1807751455
 H         -6.9381490759        2.1327954557       -0.6513303061
 C         -6.3831651647        0.0470874722       -0.7745125256
 H         -5.7925989296       -0.5593048137       -0.0839513594
 H         -7.1894800166       -0.5878054201       -1.1485330559
 C         -5.5106874096        0.4236706477       -1.9720944405
 H         -5.1092050549       -0.4954157777       -2.4062750534
 H         -6.1226393295        0.9152761797       -2.7316125685
 C         -4.3289524681        1.3401912110       -1.6290712960
 H         -4.6824033114        2.3516868244       -1.4294941030
 H         -3.6540787260        1.3681476012       -2.4882727137
 H         -6.2724951701        0.6250723967        1.9176841803
 H         -6.9409254826        2.2568286800        1.8622934429
 H         -4.9109426044        2.9908482348        0.5569815344
 H         -4.6189076270        2.4882416741        2.2308132476
 O         -3.1861182592        0.6435105920        1.8786773594
 C         -2.1888320695       -0.3047319378        1.7127848312
 O         -1.6714458487       -0.6982564907        2.7790443510
 O         -2.1550595622       -0.4404116140       -1.9061747202
 C         -0.7574050296       -1.7404943452        0.2593232726
 C          0.4071887003       -1.1411529096       -0.4918082996
 C          1.0159219057       -1.7488519474       -1.5811739836
 C          2.0780231768       -1.1344347040       -2.2234935210
 C          2.5625645694        0.0848372584       -1.7890619715
 C          1.9745901068        0.6905649726       -0.6849069986
 C          0.9111942045        0.0746120649       -0.0443059563
 H          0.4514614338        0.5496462553        0.8141454960
 N          2.4754521958        1.9177767007       -0.2187586764
 S          4.1362264225        2.0902359775       -0.1046435527
 O          4.3461838564        3.0490596875        0.9576633058
 O          4.6752310283        2.4530499344       -1.3918101751
 C          4.7480455101        0.4826228761        0.3710809574
 C          5.6504455170       -0.1773831809       -0.4378475641
 C          6.0917326984       -1.4362069944       -0.0624488741
 C          5.6217299169       -2.0118947834        1.1074613079
 C          4.7178267658       -1.3344565592        1.9117573947
 C          4.2754196695       -0.0746627270        1.5428307498
 H          3.5753140815        0.4773091290        2.1498702702
 H          4.3520413301       -1.7828763055        2.8216191044
 H          5.9607463483       -2.9941110205        1.3965001394
 H          6.7959903209       -1.9643573328       -0.6846560444
 H          5.9858966655        0.3057181454       -1.3410466873
 H          2.0108938514        2.2652639845        0.6068345911
 H          3.3767497282        0.5833237315       -2.2896045000
 H          2.5328224743       -1.6112708672       -3.0780632941
 H          0.6523806632       -2.6985184667       -1.9366070900
 H         -0.4154497355       -1.9782149419        1.2772690398
 C         -1.3108438121       -2.9988408759       -0.3751831559
 C         -0.6799720638       -4.3272189290       -0.0883709182
 C         -2.0201952446       -3.9930341749        0.4926020996
 H         -2.8943696455       -4.4901201498        0.0994773328
 H         -2.0823103496       -3.7743329966        1.5490780322
 H         -0.6353379340       -5.0590779208       -0.8806095921
 H          0.1695542531       -4.3437842284        0.5772490411
 H         -1.7137909291       -2.8235507528       -1.3658196084
