  62
        -98.94443769
 C          1.7878973095        0.6581743897       -0.3550871592
 C          2.8976598395        1.3327644093        0.2096523813
 C          4.2192666295        0.8505537993       -0.2056915587
 C          4.3129974896       -0.1625862103       -1.0861322491
 C          5.5884460896       -0.7467529502       -1.6305387191
 C          6.2259367893       -1.8084393607       -0.7239064095
 C          6.8837058991       -1.2678972413        0.5463466709
 H          7.4725703889       -2.0822339116        0.9731975806
 H          7.5769675692       -0.4685422913        0.2827973714
 C          5.8940605790       -0.7655844917        1.6068489709
 H          4.8979712590       -1.1583821815        1.3896563105
 H          6.1835230687       -1.1521964222        2.5866315208
 C          5.8116569591        0.7562408482        1.7267135216
 H          5.0591888190        1.0002137280        2.4808237916
 H          6.7713574491        1.1488841980        2.0698244020
 C          5.4280145095        1.4733790089        0.4254836519
 H          5.1806774295        2.5103399288        0.6652637823
 H          6.2671405296        1.4655147191       -0.2697049480
 H          5.4621489591       -2.5422892807       -0.4559517300
 H          6.9890930093       -2.3233503305       -1.3121224796
 H          5.3323342797       -1.2162786697       -2.5828100394
 H          6.3066257797        0.0517835298       -1.8189378186
 O          3.2218082896       -0.7785736899       -1.6138962396
 C          1.9359734696       -0.4030019099       -1.2481038297
 O          1.0366015696       -1.0765400095       -1.7858798502
 O          2.7880827394        2.2910661489        1.0201219317
 C          0.3887000495        1.1002914197        0.0384898107
 C         -0.3235343308       -0.0399846205        0.7203702800
 C          0.2168166289       -0.5419438912        1.9029332599
 C         -0.3749110313       -1.6048464614        2.5554106193
 C         -1.5237856613       -2.1859768910        2.0469010088
 C         -2.0709764510       -1.6930114504        0.8683164589
 C         -1.4772862608       -0.6185866502        0.2168593996
 H         -1.9078201405       -0.2715593997       -0.7069593404
 N         -3.2247243010       -2.2742395100        0.3343908384
 S         -4.2588622207       -1.4831072194       -0.6946577014
 O         -5.4746316108       -2.2685872593       -0.6392799520
 O         -3.6772608304       -1.3278790589       -2.0045204412
 C         -4.5666840906        0.1240782703        0.0203217393
 C         -4.6551528609        0.2660478797        1.3907483793
 C         -4.9379262708        1.5161678495        1.9177684999
 C         -5.1376570105        2.5962550699        1.0722046303
 C         -5.0541950003        2.4365705305       -0.3018413497
 C         -4.7643836803        1.1901408507       -0.8337055402
 H         -4.6808257901        1.0213723812       -1.8956893603
 H         -5.2107383901        3.2767215208       -0.9593848494
 H         -5.3593617105        3.5675111397        1.4853903807
 H         -5.0022468810        1.6427934390        2.9864964399
 H         -4.5003775211       -0.5869557506        2.0305761790
 H         -3.6763307612       -2.9787379502        0.8961838880
 H         -1.9855927515       -3.0219739812        2.5494409783
 H          0.0578334384       -1.9853240319        3.4683322392
 H          1.1160446089       -0.0881343614        2.2965048003
 H          0.5370628094        1.9014964293        0.7771971211
 C         -0.3522217402        1.6694911003       -1.1513390092
 C         -1.4859666501        2.6251769004       -0.9355948289
 C         -0.1821855400        3.1206239005       -1.4834381585
 H         -0.1334712897        3.4088329709       -2.5228066983
 H          0.4571501000        3.7049369901       -0.8380428881
 H         -2.3344017900        2.5704916808       -1.5999805991
 H         -1.7409007803        2.8763614199        0.0827928411
 H         -0.4221699301        0.9724326607       -1.9793687895
