  62
        -98.93863934
 C          1.9347852927        1.3557409221        0.3253592080
 C          2.6271095867        0.8512142708       -0.7996366691
 C          3.8338487458        0.0507873871       -0.5176180614
 C          4.1924320776       -0.1665971210        0.7595205218
 C          5.3480492738       -0.9884183310        1.2602487275
 C          4.9026700693       -2.4297549864        1.5601584673
 C          4.9555347593       -3.3826903404        0.3664747114
 H          5.9987215061       -3.5970315901        0.1250412454
 H          4.4925035286       -4.3216104088        0.6790730624
 C          4.2534538847       -2.8865123456       -0.9004684138
 H          3.2957259738       -2.4320545747       -0.6388366355
 H          4.0357434646       -3.7555975238       -1.5245258825
 C          5.1004358826       -1.8929547949       -1.7097294922
 H          5.1460277188       -2.2216599775       -2.7500291090
 H          6.1238482710       -1.9102521338       -1.3353042800
 C          4.5793374076       -0.4484450811       -1.7249989951
 H          5.4157027564        0.2300291301       -1.9237782817
 H          3.8741114246       -0.3256042452       -2.5532567333
 H          5.5413268004       -2.8377631215        2.3462187380
 H          3.8840537638       -2.3907745421        1.9552014269
 H          6.1700442693       -0.9703526130        0.5510314629
 H          5.6774982280       -0.5257970300        2.1930150663
 O          3.4774452288        0.3141133336        1.8147683096
 C          2.3376220506        1.0741511778        1.6296587577
 O          1.7741879488        1.4278867247        2.6862436440
 O          2.2576614829        1.0528978929       -1.9855423524
 C          0.6883710876        2.2020406814        0.1358404544
 C         -0.3748432702        1.3985410610       -0.5738095226
 C         -1.0753875563        1.8558705665       -1.6812966925
 C         -2.0358889683        1.0586955752       -2.2815008146
 C         -2.3272877576       -0.1982966443       -1.7864274150
 C         -1.6474407334       -0.6563431617       -0.6640089865
 C         -0.6857100165        0.1423284803       -0.0660174269
 H         -0.1551389689       -0.2164795144        0.8079912591
 N         -1.9576479978       -1.9209468702       -0.1349010030
 S         -3.5772991476       -2.3131356862        0.0297250841
 O         -3.6335236117       -3.2338813246        1.1437594719
 O         -4.0839535745       -2.8140873445       -1.2236530443
 C         -4.3942174481       -0.7797055839        0.4375161524
 C         -5.3886323243       -0.2903947751       -0.3846545343
 C         -5.9874951985        0.9180882854       -0.0665240220
 C         -5.5796410540        1.6151547436        1.0598783820
 C         -4.5815427785        1.1085045329        1.8783806147
 C         -3.9817766321       -0.1007254019        1.5670532818
 H         -3.2051887962       -0.5208969500        2.1865452648
 H         -4.2640814165        1.6514311666        2.7543042474
 H         -6.0412171866        2.5589301750        1.3036833349
 H         -6.7654255268        1.3133047249       -0.6995458039
 H         -5.6706110975       -0.8627833980       -1.2533145274
 H         -1.4376351863       -2.1570280797        0.6970704390
 H         -3.0609728518       -0.8363021237       -2.2518839746
 H         -2.5633178748        1.4214900082       -3.1502047814
 H         -0.8627275338        2.8323557286       -2.0832151379
 H          0.3209013191        2.4266908851        1.1479000702
 C          1.0348543772        3.5034732473       -0.5556644758
 C          0.2053087455        4.7275885974       -0.3143227204
 C          1.5845016829        4.6310862714        0.2634543372
 H          2.3678568605        5.2418134977       -0.1597186612
 H          1.6865340759        4.4681095297        1.3268278647
 H          0.0424901287        5.4104271977       -1.1343273044
 H         -0.6327547947        4.6386760772        0.3600664642
 H          1.4551915730        3.3523002726       -1.5429436465
