  62
        -98.93906801
 C         -2.5389050988       -1.1475552423        0.6280430633
 C         -3.4129895070       -0.9900591454       -0.4760022125
 C         -4.4843131017        0.0059989318       -0.3044682980
 C         -4.5662826640        0.7075513947        0.8395136631
 C         -5.5687463135        1.7898836562        1.1150379777
 C         -5.0281942068        3.1667626032        0.7046777163
 C         -4.4370195927        3.2034303244       -0.7047239686
 H         -4.1180882363        4.2303566122       -0.8962841232
 H         -3.5398589657        2.5801840750       -0.7309960676
 C         -5.4017883820        2.7524357755       -1.8103547334
 H         -5.3305921190        3.4542973167       -2.6439204812
 H         -6.4281627011        2.7886158542       -1.4433865512
 C         -5.1133761811        1.3599862033       -2.3742018314
 H         -4.0596081198        1.2902843773       -2.6551875980
 H         -5.7043874720        1.2335394666       -3.2851391870
 C         -5.4440096181        0.1831057789       -1.4477589541
 H         -6.4673069807        0.2803466876       -1.0798369593
 H         -5.3760414439       -0.7338828637       -2.0403296967
 H         -5.8399952440        3.8925868054        0.7800833060
 H         -4.2463225333        3.4566374959        1.4107969938
 H         -6.4876578739        1.5728831931        0.5738701312
 H         -5.7809386015        1.7972976733        2.1855510645
 O         -3.7003450090        0.5389611238        1.8724871499
 C         -2.6695594591       -0.3794410205        1.7880528858
 O         -1.9455693848       -0.4314335348        2.8043212813
 H          0.9770068825       -1.6894125431        1.8679715418
 C          0.9803849563       -1.3112577090        0.8543422845
 C         -0.1534632944       -1.4586995730        0.0704160409
 C         -0.1492464476       -0.9306375414       -1.2177141938
 C          0.9744151264       -0.2904825457       -1.7062504848
 C          2.1094066546       -0.1558022434       -0.9244251826
 C          2.1066668562       -0.6569539342        0.3697364390
 N          3.2508296944       -0.5231585974        1.1719621133
 S          4.0492503213        0.9527035646        1.2142793892
 O          4.7453773941        0.9636249018        2.4821682020
 O          3.1494763720        2.0541678795        0.9625146220
 C          5.2443973455        0.8211813449       -0.0999483322
 C          6.0887030508       -0.2719737609       -0.1061305551
 C          7.0292355198       -0.3852346034       -1.1173067230
 C          7.1122904862        0.5926351519       -2.0974401493
 C          6.2607789602        1.6864531723       -2.0746373419
 C          5.3164451149        1.8049320808       -1.0665713099
 H          4.6297952290        2.6349304653       -1.0120432132
 H          6.3272031695        2.4462958093       -2.8367027357
 H          7.8449517885        0.5018700066       -2.8837394016
 H          7.6932041223       -1.2343368619       -1.1383951355
 H          5.9948709017       -1.0075022605        0.6751097185
 H          3.1438859881       -0.9007765958        2.1024018483
 H          2.9838873729        0.3491700319       -1.3007191332
 H          0.9678763000        0.1112973946       -2.7082682505
 H         -1.0378179345       -1.0257305965       -1.8235355685
 C         -1.3784705386       -2.1306122439        0.6347595595
 H         -1.1834905899       -2.3308392194        1.7003161262
 C         -1.7115114154       -3.4635662156       -0.0216697494
 C         -1.0216220869       -3.9898167500       -1.2410946224
 C         -0.7435027233       -4.6043094340        0.0952832313
 H         -1.1265279991       -5.5908570456        0.3079368241
 H          0.2129901307       -4.3937241777        0.5505706929
 H         -0.2486044477       -3.3898993643       -1.6940730373
 H         -1.6203260358       -4.5382844497       -1.9521094311
 H         -2.7631148530       -3.7109608278        0.0755602953
 O         -3.3244586110       -1.6350873507       -1.5509214728
