  62
        -98.93992558
 C         -1.1912712948       -1.2364387106        0.0024033895
 C         -1.8287242402       -0.5250200828        1.0450783076
 C         -2.6036311506        0.6631677673        0.6515896331
 C         -2.6317112539        1.0305070161       -0.6408475299
 C         -3.3491103249        2.1993862625       -1.2695428810
 C         -4.7746232389        2.5000313148       -0.7859846059
 C         -5.5975328402        1.2693443437       -0.3781189716
 H         -6.5588598361        1.2978244376       -0.8944433538
 H         -5.0877846285        0.3561624427       -0.6897859426
 C         -5.8749310617        1.2099267542        1.1259681094
 H         -6.1454435589        2.2099005121        1.4723350651
 H         -6.7367887442        0.5610316823        1.2996295014
 C         -4.7275909827        0.6768735410        1.9833573821
 H         -4.6036235367       -0.3956748384        1.8106248408
 H         -5.0058645268        0.8010622505        3.0328275192
 C         -3.3627521810        1.3461544322        1.7526845656
 H         -3.4739980877        2.4115634339        1.5665574234
 H         -2.7669403345        1.2115564134        2.6597610809
 H         -4.7373319528        3.1941444797        0.0524692215
 H         -5.2800665575        3.0211406406       -1.6008643319
 H         -2.7356650715        3.0948078976       -1.1367459564
 H         -3.3684540384        1.9768027897       -2.3390255443
 O         -1.9430586862        0.3552164786       -1.6024163337
 C         -1.2037654309       -0.7805473925       -1.3155105689
 O         -0.6247078412       -1.2752503088       -2.2986563048
 H          1.0281150056       -0.7556253217        1.6880217013
 C          1.6358447167       -1.2575454575        0.9453505005
 C          1.0515219894       -2.2354825253        0.1480889735
 C          1.8370300649       -2.8717122626       -0.8025365352
 C          3.1693854930       -2.5249968818       -0.9554808131
 C          3.7460332318       -1.5489789440       -0.1636198304
 C          2.9690336247       -0.9144247590        0.7972699978
 N          3.5451898351        0.0968282384        1.6011986358
 S          4.0029209858        1.4747087654        0.7638720946
 O          5.1603137121        1.1712945762       -0.0373975324
 O          4.1701759228        2.5027390887        1.7657253664
 C          2.6098171137        1.8487477951       -0.2846550005
 C          1.5579846879        2.5651705284        0.2497953529
 C          0.4493450021        2.8178943005       -0.5408219412
 C          0.4079973471        2.3436793205       -1.8429186486
 C          1.4650827024        1.6110537735       -2.3590180447
 C          2.5782698569        1.3582209853       -1.5742698374
 H          3.4216467374        0.7972627515       -1.9422194638
 H          1.4173779001        1.2268258534       -3.3650240106
 H         -0.4553968379        2.5357705446       -2.4599051303
 H         -0.3782886526        3.3786494462       -0.1361124874
 H          1.6305315812        2.9260709765        1.2635990953
 H          2.9497489028        0.3654199513        2.3728514594
 H          4.7768363861       -1.2564217367       -0.2816153912
 H          3.7667349263       -3.0221150403       -1.7045915958
 H          1.4042535690       -3.6290610812       -1.4345336331
 C         -0.4195711178       -2.5001922757        0.3447678260
 H         -0.5922939926       -2.6642943976        1.4182280103
 C         -0.9437920295       -3.6943915348       -0.4217722221
 C         -0.6803905435       -5.0779542779        0.0901686255
 C         -2.0615810512       -4.5015793561        0.1645680577
 H         -2.8203444573       -4.8894889140       -0.4984344837
 H         -2.4399500169       -4.2026719494        1.1314192197
 H         -0.1201597037       -5.1716126852        1.0081927240
 H         -0.4910629943       -5.8656980789       -0.6229054207
 H         -0.9532771360       -3.5386503670       -1.4938877361
 O         -1.7502968636       -0.8639597777        2.2575848725
