  62
        -98.93509155
 C          1.6468065083        0.2126982311        0.3825842298
 C          2.8007868661        0.9642681878        0.0638592136
 C          3.9616969610        0.2157199215       -0.4656786500
 C          3.8566448802       -1.1128574108       -0.6481900358
 C          4.9055781478       -2.0778867878       -1.1332225793
 C          5.9543124633       -2.4018454088       -0.0569587679
 C          6.4659356898       -1.1952548887        0.7254791970
 H          7.1168179038       -1.5671360769        1.5212723132
 H          5.6225345806       -0.6950555874        1.2048780246
 C          7.2609231363       -0.1797798456       -0.0917564957
 H          8.1227634664       -0.6776153231       -0.5418832208
 H          7.6394419567        0.5722916379        0.6053451392
 C          6.4861393441        0.5440963665       -1.1950321834
 H          6.3606389914       -0.0901541087       -2.0683891195
 H          7.0951738499        1.3946337734       -1.5153165923
 C          5.1399647095        1.1136582440       -0.7589303023
 H          4.7917159540        1.8124817576       -1.5291705476
 H          5.2845289902        1.7258346278        0.1385739434
 H          6.7929471713       -2.9112101125       -0.5347055454
 H          5.5018687727       -3.0937002539        0.6576682855
 H          5.3788722067       -1.6962111690       -2.0329118004
 H          4.3833079667       -2.9999386073       -1.3977721554
 O          2.7128888824       -1.7944663573       -0.3532090477
 C          1.5998033897       -1.1676685937        0.1638595591
 O          0.6395808329       -1.9313897522        0.3902110384
 O          2.8980101233        2.2126768230        0.2086661853
 C          0.3778812820        0.8168757498        0.9609887148
 C         -0.4880162565        1.4366382579       -0.1097145463
 C         -0.0502240453        2.5177837142       -0.8672836155
 C         -0.8778051444        3.0813120837       -1.8206699252
 C         -2.1586815261        2.5966163540       -2.0201790924
 C         -2.6049985391        1.5163321809       -1.2685692524
 C         -1.7625221241        0.9359131441       -0.3309620563
 H         -2.1081318828        0.0861779318        0.2380224235
 N         -3.8927691268        0.9951090428       -1.4525863710
 S         -4.7755092907        0.4402580304       -0.1441856433
 O         -6.1533831850        0.5224973402       -0.5798954496
 O         -4.4471376186        1.1596457891        1.0640065170
 C         -4.3236049688       -1.2740189994        0.0068788005
 C         -3.9146876569       -1.7704979422        1.2280771582
 C         -3.5917660642       -3.1140371146        1.3323009209
 C         -3.6846244050       -3.9333820524        0.2184206996
 C         -4.1001638990       -3.4200839880       -1.0009307247
 C         -4.4251173196       -2.0780317040       -1.1109022670
 H         -4.7549999296       -1.6440224358       -2.0400605036
 H         -4.1695287550       -4.0617995917       -1.8645704216
 H         -3.4292629492       -4.9779243007        0.3022661414
 H         -3.2646346491       -3.5141080028        2.2786480137
 H         -3.8508970227       -1.0973911419        2.0689852325
 H         -4.4677209882        1.4990109308       -2.1117041729
 H         -2.8092941183        3.0489915993       -2.7534017310
 H         -0.5272260425        3.9178860496       -2.4063085284
 H          0.9438366493        2.9044783789       -0.7044184079
 H         -0.1820451593       -0.0282506207        1.3844801073
 C          0.6311883864        1.8220087783        2.0694242101
 C         -0.5144025609        2.2192428130        2.9496255568
 C          0.5929104439        1.3697985247        3.4963130538
 H          1.2849646754        1.8134742080        4.1964556013
 H          0.3891336396        0.3257764677        3.6859801544
 H         -0.5811756385        3.2467315556        3.2735429966
 H         -1.4743415644        1.7593342755        2.7629847267
 H          1.3510400225        2.5844674461        1.8036211980
