  62
        -98.95045928
 C         -1.7661284008       -1.2800053864       -0.2405449696
 C         -2.8575771602       -0.6363803500        0.3859702817
 C         -3.2667199844        0.6478658920       -0.1959176851
 C         -2.6020541375        1.1296822983       -1.2621796930
 C         -2.8968669051        2.4376139743       -1.9370771568
 C         -2.0478340360        3.5746628747       -1.3536940086
 C         -2.0762428532        3.6497710741        0.1728858857
 H         -1.5606564263        2.7755731135        0.5784546043
 H         -1.4834944686        4.5204350737        0.4642823745
 C         -3.4807495154        3.7606970267        0.7823831865
 H         -3.4577364134        4.5179671584        1.5690742585
 H         -4.1871618001        4.1017220548        0.0242107217
 C         -4.0043167150        2.4733381911        1.4220607553
 H         -3.2459242444        2.0710154149        2.0992162195
 H         -4.8815955084        2.7255567547        2.0242543091
 C         -4.4202366489        1.3631574985        0.4487248448
 H         -5.0955261239        1.7698938951       -0.3069346191
 H         -4.9612617323        0.6038017758        1.0213297057
 H         -1.0092863603        3.4264502616       -1.6592692460
 H         -2.3991860338        4.5189635492       -1.7750994643
 H         -2.6665720893        2.3342030561       -2.9991031998
 H         -3.9550603662        2.6669086962       -1.8252027633
 O         -1.5593015016        0.4824922094       -1.8389983775
 C         -1.0945040555       -0.7155103240       -1.3238760431
 O         -0.1017721256       -1.1806180542       -1.9180169702
 O         -3.4623009503       -1.1158247156        1.3848664323
 C         -1.2547440851       -2.5939789641        0.3217390628
 C          0.2008026285       -2.4595916851        0.6958120087
 C          1.1503551562       -3.4446860862        0.4543283201
 C          2.4769114940       -3.2402208908        0.7943706555
 C          2.8889401094       -2.0453568451        1.3556967052
 C          1.9439012963       -1.0590464292        1.6115950545
 C          0.6112432749       -1.2850712248        1.3131772486
 H         -0.1096613611       -0.5084818119        1.5232302886
 N          2.3044128854        0.1964537873        2.1481762474
 S          2.0847971807        1.5101933050        1.1247936480
 O          2.5745527563        2.6529917939        1.8663236538
 O          0.7149978629        1.5701560725        0.6899053811
 C          3.1885033227        1.1738092879       -0.2357710940
 C          2.7970754827        0.3018214105       -1.2317181957
 C          3.7061447048       -0.0162811956       -2.2301535111
 C          4.9782316028        0.5338384563       -2.2152755759
 C          5.3543121965        1.4089289972       -1.2068744619
 C          4.4544741192        1.7280767569       -0.2036257961
 H          4.6993626340        2.4043234479        0.5996751957
 H          6.3430700724        1.8385950994       -1.1978709209
 H          5.6789025864        0.2794342142       -2.9948896473
 H          3.4047083093       -0.6971448286       -3.0100197567
 H          1.8005983045       -0.1132820619       -1.2318281576
 H          3.2460189253        0.2237097366        2.5166075714
 H          3.9283645351       -1.8731026361        1.5915380279
 H          3.2029742036       -4.0144750858        0.5992022318
 H          0.8526415914       -4.3712467863       -0.0087287135
 H         -1.8364837285       -2.7680898316        1.2396741248
 C         -1.5232018870       -3.7259130583       -0.6487822836
 C         -1.7861897417       -5.1128603737       -0.1446998629
 C         -2.9048645871       -4.3009467064       -0.7227282737
 H         -3.2986589061       -4.5745729019       -1.6900001952
 H         -3.6454652039       -3.8932991582       -0.0501047533
 H         -1.4145959385       -5.9489981742       -0.7176801887
 H         -1.7744277879       -5.2676935202        0.9235868731
 H         -0.9784962070       -3.6110399855       -1.5793430741
