  62
        -98.94459396
 C         -1.6987990764       -0.8110138951        0.1770433033
 C         -2.9382156900       -1.1543004146        0.7695662723
 C         -4.1322098902       -0.8741710013       -0.0349001632
 C         -3.9989547847       -0.3365749328       -1.2611283592
 C         -5.1207838266       -0.0073699567       -2.2085738922
 C         -5.7769148395        1.3558907974       -1.9496292956
 C         -6.6591897528        1.4281099611       -0.7026003720
 H         -7.2219645986        2.3618094996       -0.7627482858
 H         -7.3812129110        0.6111847010       -0.7219473447
 C         -5.8855303087        1.4030860886        0.6230438080
 H         -6.2743725747        2.1790708834        1.2863314582
 H         -4.8353685524        1.6398801418        0.4358240729
 C         -5.9678905967        0.0771688486        1.3794692136
 H         -5.3572902899        0.1589198451        2.2822972947
 H         -6.9998678317       -0.1054955862        1.6869253887
 C         -5.4734369493       -1.1362571571        0.5812580739
 H         -5.3641778598       -1.9779103020        1.2694921883
 H         -6.1995133383       -1.4031879197       -0.1861260271
 H         -6.3949952572        1.5900055183       -2.8195114632
 H         -4.9927639506        2.1141495519       -1.8862022112
 H         -4.6868741363        0.0048953430       -3.2107498392
 H         -5.8780366862       -0.7907796520       -2.1670686871
 O         -2.7879294997       -0.0402235905       -1.8042970810
 C         -1.6113988519       -0.2488861877       -1.0963839895
 O         -0.5804062340        0.0909285283       -1.7073223652
 H          2.1492683521       -0.1926700022        0.4234833901
 C          1.5556107774        0.5518077656        0.9242221970
 C          0.2392698534        0.2825266808        1.2618881379
 C         -0.4963326382        1.2693628072        1.9151335624
 C          0.0703995092        2.4925346020        2.2127602939
 C          1.3824666980        2.7611130282        1.8611327484
 C          2.1266635923        1.7849404805        1.2122210680
 N          3.4732864772        2.0078429123        0.8808483404
 S          4.0284356691        1.6056433447       -0.6511496268
 O          5.2666501931        2.3469220395       -0.7796939162
 O          3.0340512519        1.8577172336       -1.6664751478
 C          4.4146979699       -0.1286892792       -0.5555906258
 C          5.2873577478       -0.5529300180        0.4272480608
 C          5.6180145973       -1.8968459009        0.4924965941
 C          5.0791639108       -2.7863630957       -0.4251725506
 C          4.2063860577       -2.3431671572       -1.4078012589
 C          3.8680614274       -1.0005153678       -1.4762942190
 H          3.1796746219       -0.6140480926       -2.2122000144
 H          3.7840161639       -3.0360632033       -2.1183724615
 H          5.3376015430       -3.8325326766       -0.3742989153
 H          6.2930780494       -2.2474422511        1.2563091848
 H          5.6890193522        0.1712014006        1.1159240687
 H          3.8226579659        2.9156311605        1.1543264290
 H          1.8261684012        3.7189068387        2.0880723597
 H         -0.5128867825        3.2473211669        2.7186756317
 H         -1.5221902331        1.0603881724        2.1868940855
 C         -0.4247410455       -1.0407601062        0.9702118557
 H         -0.7577959747       -1.4679145553        1.9280929678
 C          0.4790084217       -2.0400840722        0.2815304119
 C          1.4581918843       -2.8381400998        1.0882439440
 C          0.2483219062       -3.5032969738        0.5060038337
 H          0.3781522153       -4.1779858833       -0.3265874373
 H         -0.5550866792       -3.7824577489        1.1719943275
 H          1.4779078210       -2.6679902857        2.1539087883
 H          2.4236145876       -3.0561029734        0.6576514715
 H          0.7684021597       -1.7265416235       -0.7153254051
 O         -3.0405678458       -1.6680465112        1.9155820110
