  62
        -98.94454294
 C          2.0733855998        0.2660685104       -0.1895028501
 C          3.0446404597        0.9390891411        0.5911076593
 C          4.2623768698        0.1788194314        0.8995861599
 C          4.3711824599       -1.0908827389        0.4674361508
 C          5.5744553201       -1.9642917686        0.6710245114
 C          6.5587666400       -1.8355993794       -0.4999403787
 C          6.8877303398       -0.3903048796       -0.8740813999
 H          5.9874772797        0.0905152400       -1.2635547502
 H          7.6131227898       -0.4228752901       -1.6898947199
 C          7.4526934298        0.4510932313        0.2789083395
 H          8.3090644897        1.0197075112       -0.0897366510
 H          7.8163125399       -0.2036872380        1.0716468100
 C          6.4674804897        1.4619452117        0.8686952888
 H          6.0305791296        2.0592269010        0.0644532183
 H          7.0264687996        2.1432518622        1.5156246082
 C          5.3257019598        0.8709029022        1.7052954393
 H          4.8239424897        1.6989343225        2.2145344687
 H          5.7341511299        0.1993114928        2.4631701398
 H          6.1224928300       -2.3249019601       -1.3739234284
 H          7.4772991901       -2.3641166390       -0.2383136184
 H          5.2391843602       -3.0005390586        0.7404849422
 H          6.0641082901       -1.6882480778        1.6029132512
 O          3.4046208500       -1.7142226795       -0.2530274087
 C          2.2366202799       -1.0543196799       -0.6084575591
 O          1.4475044799       -1.7412215705       -1.2844480585
 O          2.8978932396        2.1182381114        1.0105361185
 C          0.7941106697        1.0032612099       -0.5481616906
 C         -0.3696944202        0.3055421103        0.1098614000
 C         -0.4549890902        0.3215918613        1.5001275500
 C         -1.4807930301       -0.3324575083        2.1544153705
 C         -2.4462542100       -1.0174071689        1.4367454211
 C         -2.3736738701       -1.0340813900        0.0508744711
 C         -1.3471772802       -0.3660990804       -0.6059860794
 H         -1.3014113502       -0.3988085812       -1.6828442094
 N         -3.3554292000       -1.7200255306       -0.6824142383
 S         -4.9569192300       -1.4953567105       -0.2585456184
 O         -5.2822290199       -2.3158967797        0.8815470822
 O         -5.7091500301       -1.7626144515       -1.4641702282
 C         -5.0738214002        0.2293250798        0.1841756903
 C         -4.8102739704        1.1684625491       -0.7934481904
 C         -4.8522080905        2.5123350693       -0.4607378814
 C         -5.1525334805        2.8926296103        0.8385265483
 C         -5.4190864703        1.9380781410        1.8073678490
 C         -5.3783573702        0.5920236408        1.4800780900
 H         -5.5783979101       -0.1821721087        2.2027107906
 H         -5.6542259803        2.2367739017        2.8162316688
 H         -5.1794962606        3.9396962805        1.0960266675
 H         -4.6474932906        3.2570140188       -1.2131107620
 H         -4.5861800404        0.8391469184       -1.7952511702
 H         -3.2242745201       -1.6857381514       -1.6821735583
 H         -3.2439857899       -1.5496161887        1.9289355316
 H         -1.5293843300       -0.3146269775        3.2325642405
 H          0.3045235298        0.8490608719        2.0606442596
 H          0.8969374696        1.9979711703       -0.0922479113
 C          0.6551907996        1.1654749588       -2.0465189607
 C         -0.2582987706        2.2186114483       -2.5970203514
 C          1.2272304894        2.3841699384       -2.7037438617
 H          1.6917686993        2.2762220777       -3.6725450916
 H          1.7088260793        3.1131167389       -2.0686203322
 H         -0.8152008806        2.0018865575       -3.4960409113
 H         -0.7857225706        2.8377355287       -1.8876543519
 H          0.7395305696        0.2277352884       -2.5837786200
