  62
        -98.93198223
 C         -1.9256376802       -0.8024958402        0.2364695106
 C         -2.1703821302        0.2777010604        1.1153796199
 C         -2.5514808102        1.5487409900        0.4882227390
 C         -2.6068814002        1.6259982991       -0.8539989310
 C         -3.0294885202        2.8419547386       -1.6258939219
 C         -4.5417391902        2.8352547584       -1.8911164618
 C         -5.3860006802        2.5581702193       -0.6472792616
 H         -6.4346277102        2.6067560991       -0.9482197916
 H         -5.1949455702        1.5375946595       -0.3078996509
 C         -5.1418183501        3.5309869401        0.5146801377
 H         -4.6454169301        4.4297796098        0.1474493270
 H         -6.1064188601        3.8366222704        0.9251549675
 C         -4.3318566701        2.9445118009        1.6724489881
 H         -4.7729475901        1.9946460311        1.9850578587
 H         -4.4008702101        3.6318898915        2.5197645676
 C         -2.8410662101        2.7125595207        1.3939218682
 H         -2.3913200401        3.6263976604        0.9994640676
 H         -2.3549865701        2.4774872713        2.3458234584
 H         -4.8213497402        3.8012558281       -2.3152256825
 H         -4.7586438702        2.0618558179       -2.6313268513
 H         -2.7496584101        3.7334239389       -1.0677975325
 H         -2.5003473102        2.8419449979       -2.5802292619
 O         -2.3302817702        0.5766068685       -1.6681919403
 C         -1.9833525402       -0.6636117811       -1.1502157195
 O         -1.7584745103       -1.5314598918       -2.0128908889
 H          0.6186061598       -0.7322359500        0.6436156605
 C          0.7782666398       -1.6922614603        0.1722298512
 C         -0.2639508603       -2.6195552903        0.1507034819
 C         -0.0213268903       -3.8427402707       -0.4581651373
 C          1.2153003697       -4.1179000111       -1.0216054271
 C          2.2360667697       -3.1903108211       -1.0024961178
 C          2.0048306297       -1.9520851807       -0.4091787587
 N          3.0013211798       -0.9630844108       -0.4331646794
 S          2.8891757698        0.4297151299        0.4950333197
 O          2.7897696198        0.1050902209        1.9019749599
 O          1.8497855798        1.2691138095       -0.0484423009
 C          4.4862912698        1.1431527596        0.1501644691
 C          4.6844525098        1.7520514988       -1.0748801313
 C          5.9310752498        2.2826527785       -1.3657530117
 C          6.9537232898        2.1959540591       -0.4324000217
 C          6.7394003299        1.5847306200        0.7936075888
 C          5.4949237798        1.0506776202        1.0901366392
 H          5.2786312299        0.5717693109        2.0314749295
 H          7.5349178599        1.5215551705        1.5183674788
 H          7.9227887798        2.6102573590       -0.6613835920
 H          6.1001643098        2.7609438279       -2.3169769020
 H          3.8570811998        1.8024778383       -1.7637617513
 H          3.9414921098       -1.3262681808       -0.4920307991
 H          3.1931272897       -3.4071410515       -1.4505935377
 H          1.3787891096       -5.0774945515       -1.4885255465
 H         -0.7852408603       -4.5949638007       -0.5241972467
 C         -1.5292896602       -2.1492019598        0.8289125816
 H         -1.2509650502       -1.9201919791        1.8733230814
 C         -2.7805434803       -3.0108771797        0.9143943322
 C         -3.3061529303       -3.8859639404       -0.1794112672
 C         -2.8227157203       -4.4975103296        1.1037150632
 H         -3.5666214203       -4.8881816091        1.7827215635
 H         -1.8975841503       -5.0488710696        1.1183226436
 H         -2.7175738703       -3.9735938411       -1.0780299771
 H         -4.3701813103       -3.8699550105       -0.3672776672
 H         -3.5359482002       -2.4564657793        1.4688024418
 O         -2.0769184001        0.1796744413        2.3713725600
