  62
        -98.94878367
 C         -1.8138090094       -1.3355376091       -0.2494953448
 C         -2.8897675624       -0.6528860399        0.3624420351
 C         -3.2649883995        0.6262463372       -0.2473475282
 C         -2.5987365886        1.0710955527       -1.3287735470
 C         -2.8509406007        2.3662834605       -2.0508606742
 C         -2.1316602282        3.5618323715       -1.4104404112
 C         -2.7519106904        4.0659903292       -0.1066402311
 H         -2.3045318502        5.0392219616        0.1053045306
 H         -3.8230044999        4.2201224690       -0.2459592924
 C         -2.5111678663        3.1449920481        1.0977735549
 H         -1.6810486417        2.4699098393        0.8721737341
 H         -2.2016419543        3.7454659819        1.9574347674
 C         -3.7315852970        2.3302802234        1.5293221732
 H         -3.4352178337        1.6845949869        2.3605227986
 H         -4.5110755953        3.0055573520        1.8902936096
 C         -4.3259607372        1.4418862239        0.4285090394
 H         -5.0332963316        0.7499259412        0.8929613906
 H         -4.8592118926        2.0522575952       -0.2996960568
 H         -1.0904138146        3.2829916957       -1.2267784832
 H         -2.1396990799        4.3795125313       -2.1352248453
 H         -2.4697878598        2.2377608344       -3.0661403218
 H         -3.9222073471        2.5635759489       -2.1013178940
 O         -1.5950978469        0.3674400621       -1.9107453172
 C         -1.1343274128       -0.8112330858       -1.3501241963
 O         -0.1442142274       -1.3021102526       -1.9264481955
 O         -3.4962006914       -1.0854838043        1.3818588024
 C         -1.2790087125       -2.6048563638        0.3933816478
 C          0.1561690299       -2.3543695533        0.7849823287
 C          1.2091702431       -3.2076129761        0.4836050657
 C          2.5148152006       -2.8427327451        0.7681819727
 C          2.7992993037       -1.6115204996        1.3308283110
 C          1.7493506732       -0.7659743988        1.6614920379
 C          0.4441393120       -1.1532766976        1.4227750936
 H         -0.3644346119       -0.4774832712        1.6746513101
 N          2.0425492432        0.5476763827        2.1378505565
 S          1.9231006620        1.6459569442        0.8539998475
 O          2.2621228084        2.9386216616        1.4121668233
 O          0.6285792365        1.5757207840        0.2110848398
 C          3.2119954353        1.0804519457       -0.2279965542
 C          4.5026877403        1.5061993942        0.0204889664
 C          5.5303605359        1.0278077199       -0.7754762657
 C          5.2500517039        0.1309501152       -1.7959427926
 C          3.9489676470       -0.2865561380       -2.0299164282
 C          2.9134864381        0.1891749396       -1.2394728883
 H          1.8919757284       -0.1244307720       -1.3973196601
 H          3.7260561477       -0.9861471167       -2.8194567231
 H          6.0498506533       -0.2460678459       -2.4137354436
 H          6.5431793038        1.3510249293       -0.5966555452
 H          4.6671465047        2.2043747856        0.8246745126
 H          1.4007292680        0.8499059204        2.8600367563
 H          3.8133562010       -1.2939469752        1.5107335982
 H          3.3222896841       -3.5133320406        0.5186570778
 H          1.0082588546       -4.1513181668        0.0032664425
 H         -1.8787008267       -2.7514168699        1.3040461711
 C         -1.4627497981       -3.7999288587       -0.5161841227
 C         -1.6012699035       -5.1751584758        0.0639721380
 C         -2.7903594788       -4.4939882237       -0.5417929210
 H         -3.1661663876       -4.8516328976       -1.4885116170
 H         -3.5587478033       -4.1173809631        0.1175680385
 H         -1.1631648321       -6.0058696203       -0.4680723195
 H         -1.5663300381       -5.2701757918        1.1386894870
 H         -0.9379031401       -3.6883023770       -1.4581989062
