  62
        -98.93932011
 C         -1.1817600999       -1.3088432992       -0.1873403909
 C         -2.2295615581       -1.2050944425        0.7632171905
 C         -3.0916672791       -0.0192135949        0.6622415064
 C         -2.8323646311        0.8956937642       -0.2892638276
 C         -3.6653436109        2.1125384275       -0.5778993438
 C         -4.9323778542        1.7074920471       -1.3585490046
 C         -6.2402733569        1.9309553858       -0.5991453692
 H         -6.4751409881        2.9974819748       -0.6016361129
 H         -7.0309264511        1.4192309668       -1.1521685018
 C         -6.2588362286        1.4510020706        0.8554034115
 H         -7.3046860725        1.4297646596        1.1692565605
 H         -5.7593938859        2.1838699979        1.4908209135
 C         -5.6390078718        0.0719216133        1.1155897418
 H         -6.2522697673       -0.4404435195        1.8597772503
 H         -5.6631041173       -0.5376909610        0.2119842177
 C         -4.2017542651        0.1091877548        1.6682774665
 H         -4.0606350039        1.0206916183        2.2554388395
 H         -4.0666067549       -0.7404622730        2.3439319484
 H         -4.8447857301        0.6537638857       -1.6313390125
 H         -4.9804669862        2.2698583155       -2.2922587945
 H         -3.9336586008        2.6064452338        0.3534415242
 H         -3.0570955185        2.7917827060       -1.1751601435
 O         -1.8069676472        0.7729007865       -1.1682202474
 C         -0.9531607382       -0.3186564915       -1.1429470319
 O         -0.0645073933       -0.2763739175       -2.0151374394
 H          1.8805426252       -1.4281357104       -1.3577505047
 C          2.0330396312       -1.5237657692       -0.2944225517
 C          1.0420530400       -2.0894019481        0.4945419018
 C          1.2492216147       -2.1653062495        1.8682613604
 C          2.4182111404       -1.6899504117        2.4350241530
 C          3.3974944388       -1.1111463749        1.6463694283
 C          3.1912453957       -1.0181931387        0.2767872696
 N          4.1552608049       -0.3711548654       -0.5301683157
 S          4.3687281825        1.2564628304       -0.1867026888
 O          5.0133279276        1.8201215639       -1.3510876439
 O          5.0897217231        1.3762451499        1.0558424662
 C          2.7235118207        1.9197741027        0.0014313511
 C          2.0415733546        2.3311953209       -1.1254635476
 C          0.7461502649        2.8018153301       -0.9912691301
 C          0.1526386782        2.8366610479        0.2604522120
 C          0.8468050503        2.4101414995        1.3817115544
 C          2.1467480392        1.9490446578        1.2551867422
 H          2.7220195420        1.6194912097        2.1046329407
 H          0.3773343203        2.4315251081        2.3523539289
 H         -0.8599575799        3.1946213003        0.3629364087
 H          0.1989264687        3.1213213851       -1.8634021225
 H          2.5341088955        2.2862315651       -2.0835785997
 H          3.9558671736       -0.4694903400       -1.5166346655
 H          4.3038469404       -0.7096421001        2.0701767623
 H          2.5661733124       -1.7629854380        3.5017974621
 H          0.4732723318       -2.5867348164        2.4912280039
 C         -0.2749319838       -2.5268584015       -0.0961064667
 H         -0.7632255800       -3.1974606353        0.6230289441
 C         -0.1306286769       -3.2554841056       -1.4158500065
 C          0.4181425273       -4.6499372164       -1.4201472773
 C         -1.0321593657       -4.4142325046       -1.7142921018
 H         -1.3822669995       -4.5463991729       -2.7271475521
 H         -1.7572128440       -4.6913834565       -0.9630958774
 H          0.6778260665       -5.0857293926       -0.4672667020
 H          1.0662974464       -4.9471648845       -2.2302568381
 H          0.1272145446       -2.6091253486       -2.2448412974
 O         -2.4360099890       -2.0710169820        1.6548195586
