  62
        -98.94231286
 C         -2.2227634402       -0.7223946601        0.0168294593
 C         -3.0146187702       -0.3055368406        1.1181172695
 C         -3.8642417104        0.8727833693        0.9061779699
 C         -3.8336184907        1.4965699396       -0.2852137999
 C         -4.6814686910        2.6772815496       -0.6583951395
 C         -6.0009297210        2.2321252495       -1.3045592195
 C         -6.7392359607        1.1489020591       -0.5181009697
 H         -7.6676359507        0.9355758691       -1.0522436596
 H         -6.1444425505        0.2326274592       -0.5299147900
 C         -7.0600102306        1.5260086887        0.9350040005
 H         -8.0914555705        1.2398385584        1.1510294605
 H         -6.9908597308        2.6070626187        1.0609852008
 C         -6.1789329703        0.8368949586        1.9786762302
 H         -6.1712991701       -0.2408575714        1.7974073599
 H         -6.6268081202        0.9997209682        2.9625130503
 C         -4.7260131504        1.3233440089        2.0519814201
 H         -4.7064362606        2.4111587288        2.1443777104
 H         -4.2762563502        0.8931652187        2.9515342500
 H         -6.6437081912        3.1075119794       -1.4142156092
 H         -5.7836690710        1.8429179798       -2.3020437596
 H         -4.8826275210        3.2686783493        0.2328527607
 H         -4.1259657412        3.2887060999       -1.3717421594
 O         -3.0466222108        1.0863609001       -1.3115149801
 C         -2.2353991605       -0.0370603998       -1.1989294905
 O         -1.5868369306       -0.2866578094       -2.2345897207
 O         -3.0130874099       -0.9002875008        2.2293316893
 C         -1.3761210900       -1.9633404800        0.2088472889
 C          0.1003300400       -1.6929968797        0.3983988288
 C          0.9090564303       -2.6765108597        0.9618994884
 C          2.2673240003       -2.4731758495        1.1152759983
 C          2.8537655600       -1.2859040893        0.7123935385
 C          2.0595292297       -0.3002434793        0.1449934989
 C          0.6930984097       -0.5069311995       -0.0013891010
 H          0.0914827195        0.2703797605       -0.4501482407
 N          2.6361115294        0.9156935409       -0.2593939109
 S          4.0308957593        0.8700613215       -1.1951912810
 O          4.0391466090        2.1215213617       -1.9205947807
 O          4.1028918195       -0.3352262583       -1.9876990014
 C          5.3445146694        0.8900537014        0.0076034588
 C          5.3767250593        1.9292369512        0.9168395791
 C          6.3929992795        1.9635890511        1.8581201290
 C          7.3555531997        0.9650083213        1.8730333586
 C          7.3118811598       -0.0692369284        0.9507387383
 C          6.2975851696       -0.1096171284        0.0065224184
 H          6.2206955497       -0.8959877782       -0.7274579318
 H          8.0616424699       -0.8438578183        0.9634302980
 H          8.1445365697        0.9935625513        2.6077885885
 H          6.4303891394        2.7665551410        2.5764516592
 H          4.6116051292        2.6860534210        0.8686825694
 H          1.9691553892        1.5616044009       -0.6568002706
 H          3.9122841600       -1.1207846991        0.8266902385
 H          2.8789897005       -3.2451369695        1.5559852880
 H          0.4638798305       -3.6056541299        1.2815233382
 H         -1.7481907497       -2.4218071303        1.1364269788
 C         -1.5622032899       -2.9572064697       -0.9263590714
 C         -1.6035514496       -4.4291117498       -0.6527461617
 C         -2.8561962098       -3.7043734500       -1.0410859314
 H         -3.2722917698       -3.8655188998       -2.0240851714
 H         -3.5992671097       -3.5279279903       -0.2765595913
 H         -1.1509574795       -5.0966108695       -1.3697765320
 H         -1.5182181094       -4.7573981001        0.3718351282
 H         -1.1001047401       -2.6279056494       -1.8495872413
