  62
        -98.94479361
 C          1.8592378688        0.7493584997        0.4138845874
 C          2.4608915308        0.1483305272       -0.7184220546
 C          3.5180686850       -0.8301117506       -0.4308435761
 C          3.8210032082       -1.1356485834        0.8438214072
 C          4.8544617118       -2.1319972212        1.2949665410
 C          6.2823416239       -1.5714794012        1.3471876106
 C          6.9396718716       -1.3374355261       -0.0135187169
 H          6.8645758653       -2.2453780697       -0.6128186076
 H          8.0004049300       -1.1558565855        0.1706856305
 C          6.3647487957       -0.1503081912       -0.7988505019
 H          7.1833012063        0.4504956995       -1.2014361323
 H          5.7977804631        0.4935448181       -0.1225796034
 C          5.4697063408       -0.5419156215       -1.9746996115
 H          6.0600310801       -1.0748981742       -2.7233610917
 H          5.0886333553        0.3729943530       -2.4353043521
 C          4.2674788347       -1.4141658588       -1.5899609239
 H          4.5958450652       -2.4278946295       -1.3607703496
 H          3.5830326620       -1.4519032646       -2.4411908817
 H          6.8924125550       -2.2870917347        1.9032634754
 H          6.2700927308       -0.6362726377        1.9116759377
 H          4.5691804738       -2.4409867058        2.3030547672
 H          4.8289866711       -3.0065930332        0.6441008044
 O          3.1817594572       -0.5720515035        1.9040430632
 C          2.2008055080        0.3893984088        1.7166883474
 O          1.7043042923        0.8299102825        2.7743739588
 H         -0.4083336659       -0.5160958316        0.7720738166
 C         -0.8878030205       -0.0293499811       -0.0688313964
 C         -0.3998361182        1.1961722265       -0.5067524041
 C         -1.0352554615        1.8175000596       -1.5732751069
 C         -2.1070131720        1.2071633302       -2.2031494667
 C         -2.5741191250       -0.0229827263       -1.7801018459
 C         -1.9589940391       -0.6429145571       -0.6990096306
 N         -2.4360868890       -1.8837414959       -0.2459910922
 S         -4.0901498079       -2.1009163880       -0.1285334368
 O         -4.2685559976       -3.0872540501        0.9141924514
 O         -4.6271829758       -2.4500518901       -1.4202857054
 C         -4.7429306137       -0.5213092854        0.3850428042
 C         -5.6841633202        0.1195527656       -0.3944671897
 C         -6.1620336609        1.3553986963        0.0113145870
 C         -5.6893390480        1.9277495284        1.1817670718
 C         -4.7456920164        1.2698469739        1.9560615045
 C         -4.2667691387        0.0328380652        1.5568277182
 H         -3.5352933422       -0.5034447139        2.1404320642
 H         -4.3776991609        1.7157244522        2.8662691019
 H         -6.0573523854        2.8920133361        1.4947299213
 H         -6.8971750470        1.8682195039       -0.5875247205
 H         -6.0203820181       -0.3602135328       -1.2991802206
 H         -1.9562860831       -2.2395949287        0.5670207545
 H         -3.3938816780       -0.5192783348       -2.2736372684
 H         -2.5829269716        1.6954200355       -3.0395900126
 H         -0.6853040224        2.7754737997       -1.9201758168
 C          0.7746592542        1.7954399634        0.2292748052
 H          0.4375880448        2.0642329542        1.2412251015
 C          1.3452315259        3.0293221786       -0.4379415451
 C          0.7534616183        4.3782465458       -0.1639407020
 C          2.0951583397        4.0201729727        0.3990765227
 H          2.9744219744        4.4877360780       -0.0181708078
 H          2.1707929682        3.8178644139        1.4579460262
 H         -0.0828025118        4.4288501802        0.5166213397
 H          0.7132659678        5.0970766962       -0.9682995352
 H          1.7252870951        2.8262575123       -1.4323938298
 O          2.1338321637        0.4093763169       -1.9044147093
