  62
        -98.94903945
 C          0.8808363747        1.3548073562        0.2317584704
 C          1.4498778550        0.2931737041        0.9714479275
 C          2.2781958402       -0.6495419433        0.2084399073
 C          2.3884312514       -0.4962694270       -1.1239652683
 C          3.2071153566       -1.3792044202       -2.0208765717
 C          4.6300931127       -0.8319614855       -2.1983827896
 C          5.3165682934       -0.4671975435       -0.8820651406
 H          6.3241469761       -0.1234390609       -1.1254446140
 H          4.7894873879        0.3755471658       -0.4289528410
 C          5.3984237364       -1.6181277833        0.1303254363
 H          6.4038153071       -1.6379116556        0.5560008013
 H          5.2434239758       -2.5700931769       -0.3786451418
 C          4.4212914459       -1.5031538176        1.3016509930
 H          4.7157379427       -2.2323550006        2.0609688789
 H          4.5053274686       -0.5104727854        1.7506595402
 C          2.9445956449       -1.7591617636        0.9729618960
 H          2.8446329218       -2.7097254980        0.4439880084
 H          2.4041517585       -1.8274430944        1.9215076998
 H          4.5802607642        0.0646508955       -2.8205558254
 H          5.2238134891       -1.5798174356       -2.7273804054
 H          3.2421152572       -2.3827298929       -1.6003141948
 H          2.7152028507       -1.4231843743       -2.9946048357
 O          1.7977624562        0.5164075500       -1.8071647241
 C          1.0322896840        1.4672093835       -1.1510833848
 O          0.5607322164        2.3507728988       -1.8924984223
 H         -1.3809110212        0.1750707256        0.3602674017
 C         -1.9405083126        1.0615585513        0.0988584466
 C         -1.3891567650        2.3117286367        0.3509823316
 C         -2.1305157191        3.4406052798        0.0289937751
 C         -3.3725837253        3.3125004954       -0.5691936748
 C         -3.8892740210        2.0670063859       -0.8741410199
 C         -3.1614313623        0.9303597499       -0.5391312868
 N         -3.6480379902       -0.3544567107       -0.8206352272
 S         -2.5810266485       -1.5866293874       -1.2013884996
 O         -1.4149005237       -1.1123602570       -1.9095622575
 O         -3.3987078116       -2.5536444720       -1.9063495112
 C         -2.1280334366       -2.2777387606        0.3745941524
 C         -3.1257181916       -2.5169698479        1.2991857922
 C         -2.7881844996       -3.0926267384        2.5131102367
 C         -1.4681578066       -3.4261111391        2.7764962828
 C         -0.4799326185       -3.1858457414        1.8350853841
 C         -0.8098637138       -2.6035079952        0.6215912093
 H         -0.0670919929       -2.3806668232       -0.1298761028
 H          0.5466499996       -3.4423300908        2.0404923917
 H         -1.2048475357       -3.8748257929        3.7212814445
 H         -3.5532850105       -3.2797748985        3.2492180427
 H         -4.1397844197       -2.2482460517        1.0551093350
 H         -4.4822382472       -0.3836234338       -1.3885330454
 H         -4.8420119522        1.9706052041       -1.3720593463
 H         -3.9368848190        4.1973665896       -0.8220187378
 H         -1.7305161560        4.4207928481        0.2303664248
 C         -0.0046323259        2.3585342864        0.9486369322
 H         -0.0621532530        2.0085407790        1.9903411811
 C          0.6192045834        3.7378896378        0.9284653744
 C          0.3512453535        4.7069855464        2.0401342782
 C          1.6967150780        4.0591046277        1.9190954444
 H          2.5336399620        4.6587964038        1.5940232993
 H          1.9609831245        3.2890944096        2.6291113447
 H          0.2663938955        5.7560469249        1.7999372638
 H         -0.2958261325        4.3824037647        2.8407031764
 H          0.7317104405        4.1265120286       -0.0776792810
 O          1.2684130358        0.1365664803        2.2095875051
