  62
        -98.94014342
 C         -2.2584515006       -0.9951844648        0.4197853423
 C         -2.2877015331        0.0944880743       -0.4859592733
 C         -3.1817213128        1.2024900396       -0.1178616913
 C         -3.8556830051        1.1681248505        1.0448757695
 C         -4.7909709986        2.2275954057        1.5611681971
 C         -6.2185947427        2.1219484430        1.0071807483
 C         -6.3812686669        2.5322430681       -0.4570648816
 H         -7.4528116245        2.6201669765       -0.6469573458
 H         -5.9422356891        3.5190163461       -0.6072942789
 C         -5.7817802611        1.5408285124       -1.4642541212
 H         -6.4959189809        1.3656556645       -2.2719365145
 H         -5.6137311671        0.5794180365       -0.9732315495
 C         -4.4745138221        2.0035692424       -2.1076305281
 H         -4.1213194759        1.2122797738       -2.7737453082
 H         -4.6588896343        2.8942444782       -2.7122046434
 C         -3.3547424587        2.3159066126       -1.1063490759
 H         -2.4172817957        2.4165452602       -1.6587453017
 H         -3.5610594652        3.2539162936       -0.5914213955
 H         -6.8525466770        2.7702798720        1.6165020497
 H         -6.5696133854        1.0958010528        1.1395419690
 H         -4.8322482959        2.1041079519        2.6456370802
 H         -4.3852350850        3.2151035429        1.3393261094
 O         -3.7385527674        0.1376124747        1.9256554997
 C         -2.9515044202       -0.9647623098        1.6320657221
 O         -2.9382468475       -1.8341305931        2.5276884773
 H          0.2471628043       -0.6181550045        1.4587959600
 C          0.6987809518       -0.9578095176        0.5333759454
 C         -0.0255042597       -1.8057510329       -0.2966429148
 C          0.5651192612       -2.2386364368       -1.4757416134
 C          1.8391801258       -1.8175140733       -1.8153947016
 C          2.5480432113       -0.9596310703       -0.9956863856
 C          1.9694570427       -0.5243007922        0.1896725405
 N          2.6720644882        0.3654962479        1.0205990089
 S          4.2636953870        0.0124868592        1.4159670324
 O          4.5041344608       -1.4120385444        1.4247329046
 O          4.5068394008        0.7116246440        2.6592270216
 C          5.2104424313        0.7859744735        0.1216750364
 C          5.0172989692        2.1340752693       -0.1078693425
 C          5.7511792839        2.7545370503       -1.1060785973
 C          6.6627713433        2.0214644492       -1.8513752406
 C          6.8480759403        0.6696377563       -1.6058213564
 C          6.1162321062        0.0425731763       -0.6092998972
 H          6.2224900002       -1.0072275689       -0.3866420768
 H          7.5576381629        0.1018679397       -2.1859535361
 H          7.2317780018        2.5071789260       -2.6282820532
 H          5.6091457345        3.8055123353       -1.3001665262
 H          4.3013075246        2.6679466242        0.4945804942
 H          2.1549261172        0.6573379083        1.8368377058
 H          3.5362846717       -0.6230588463       -1.2629388814
 H          2.2837178653       -2.1566691358       -2.7386343291
 H          0.0213623958       -2.8883453561       -2.1412566927
 C         -1.4035234502       -2.2229511919        0.1581452520
 H         -1.2935517781       -2.7072840628        1.1433562445
 C         -2.0570012131       -3.2495815070       -0.7556406358
 C         -3.5489179471       -3.3519529461       -0.8601001421
 C         -2.7480471300       -2.8636969194       -2.0275528162
 H         -2.6454901699       -3.5140264640       -2.8839707625
 H         -2.7831628572       -1.8153257237       -2.2765611769
 H         -4.1400910443       -2.6366569022       -0.3063301058
 H         -3.9922183481       -4.3351853711       -0.9111064798
 H         -1.5133785052       -4.1894357296       -0.7605113654
 O         -1.6120159369        0.1544369969       -1.5438039103
