  62
        -98.93956457
 C         -2.2614931304       -0.7600137399        0.2008604395
 C         -2.4116597102        0.5036862498        0.8217090400
 C         -3.2235268703        1.4879243702        0.0951324906
 C         -3.7175152005        1.1658463207       -1.1144710594
 C         -4.6028128706        2.0509423111       -1.9420675789
 C         -6.0852103206        1.7921633711       -1.6378196388
 C         -6.4180660703        1.7879343305       -0.1457608587
 H         -7.4943072803        1.6269418505       -0.0532384686
 H         -5.9242611803        0.9358840502        0.3270661209
 C         -6.0280936601        3.0745676901        0.5952066718
 H         -5.8745297002        3.8824580004       -0.1210760179
 H         -6.8557667200        3.3694072899        1.2436857421
 C         -4.7905955099        2.9439952097        1.4851006015
 H         -4.9023887499        2.0778089794        2.1421736112
 H         -4.7340791298        3.8316938294        2.1207254319
 C         -3.4496496201        2.8216823099        0.7502132812
 H         -3.3535655502        3.6301585602        0.0227132215
 H         -2.6530904499        2.9299930595        1.4921273711
 H         -6.6794389806        2.5557769313       -2.1429865783
 H         -6.3587738807        0.8191478113       -2.0523876891
 H         -4.3566396105        3.0920912810       -1.7428704085
 H         -4.4143460508        1.8369985316       -2.9954268590
 O         -3.4997718107       -0.0351162790       -1.7070198200
 C         -2.7760661806       -1.0318098594       -1.0674269605
 O         -2.6686364508       -2.0834760491       -1.7243908810
 O         -1.8884182300        0.7951278893        1.9319355501
 C         -1.4574082103       -1.8290200303        0.9219772789
 C         -0.1657497705       -2.0565944801        0.1751238085
 C          0.1457239393       -3.2362637098       -0.4858830520
 C          1.3414190792       -3.3551607396       -1.1742780023
 C          2.2472400192       -2.3118794896       -1.2136139020
 C          1.9503019494       -1.1301389899       -0.5452374214
 C          0.7529953496       -1.0134036201        0.1443236588
 H          0.5151565797       -0.0935574403        0.6641082393
 N          2.8610978095       -0.0573300099       -0.5843056811
 S          4.4953683895       -0.4383521301       -0.3798619516
 O          5.0278233993       -0.8511009796       -1.6544808219
 O          4.6527966196       -1.3815738906        0.7044616280
 C          5.1741310997        1.1457495396        0.0711583490
 C          5.4819838496        2.0487586001       -0.9287252907
 C          5.9943050197        3.2873497099       -0.5769494703
 C          6.1883968700        3.6006940393        0.7602737698
 C          5.8752383801        2.6836288889        1.7522948895
 C          5.3614597200        1.4433755991        1.4076223791
 H          5.1130760900        0.6962838188        2.1445069988
 H          6.0298674903        2.9287804484        2.7907410496
 H          6.5895808501        4.5644656791        1.0313978702
 H          6.2419726796        4.0021889002       -1.3449743600
 H          5.3238566894        1.7575956405       -1.9540209808
 H          2.5821115897        0.6971914798        0.0280707592
 H          3.1825202491       -2.3977813895       -1.7431863922
 H          1.5711512790       -4.2757850994       -1.6896531427
 H         -0.5500334807       -4.0585521798       -0.4732701122
 H         -1.2063594601       -1.3912997707        1.8989291590
 C         -2.2716123304       -3.0838789703        1.1480973585
 C         -1.8481697903       -4.0583829808        2.2049445180
 C         -3.0704806302       -3.2159853108        2.4087374186
 H         -4.0390154302       -3.6902479507        2.3573181785
 H         -3.0196272600       -2.4040227511        3.1195427089
 H         -1.9767335904       -5.1132234207        2.0161563576
 H         -0.9645931801       -3.8188724611        2.7772100479
 H         -2.7105672706       -3.4750478999        0.2380962484
