  62
        -98.93419977
 C         -2.4156931893       -0.9373823852        0.0832063196
 C         -2.5787714975        0.4650382332        0.1540826435
 C         -3.9378818841        0.9480301365        0.4623087738
 C         -4.9205628223        0.0528566002        0.6632503989
 C         -6.3741650441        0.3323961136        0.9283574614
 C         -7.1750903734        0.3305526097       -0.3849134346
 C         -7.2246230270        1.6740606618       -1.1113609948
 H         -7.7061792324        1.5034648209       -2.0769732810
 H         -7.8563209182        2.3635898581       -0.5475152891
 C         -5.8669522573        2.3398778116       -1.3505602130
 H         -5.1427748602        1.5926188531       -1.6804089025
 H         -5.9846293064        3.0566092307       -2.1657260097
 C         -5.3300779262        3.0773737779       -0.1148743821
 H         -5.0478329455        4.0942798842       -0.3952858392
 H         -6.1297276355        3.1700308817        0.6197659337
 C         -4.0958614762        2.4420141728        0.5425798795
 H         -4.0587937904        2.7395862857        1.5958620298
 H         -3.1887707259        2.8391505218        0.0758865566
 H         -6.7395516029       -0.4271906652       -1.0412945729
 H         -8.2009375265        0.0250666447       -0.1693522412
 H         -6.7375527071       -0.4820507981        1.5583161233
 H         -6.4954333253        1.2700672492        1.4622643866
 O         -4.7149682878       -1.2921377121        0.5953281744
 C         -3.4711822447       -1.8202697321        0.3064913170
 O         -3.4303050436       -3.0673193881        0.2840218176
 O         -1.6384200753        1.2809037952       -0.0356181371
 C         -1.0549947060       -1.5260919368       -0.2401874388
 C         -0.0272102798       -1.0421363124        0.7537097388
 C         -0.3030398174       -1.1561316711        2.1144210202
 C          0.6123169606       -0.7340305571        3.0582908518
 C          1.8287812297       -0.2020379135        2.6674594731
 C          2.1140225988       -0.0840852891        1.3128941883
 C          1.1896095058       -0.5057010956        0.3664554659
 H          1.4397084220       -0.4030918744       -0.6758805013
 N          3.3272933444        0.4774499564        0.8844826376
 S          4.0439019170       -0.1081981490       -0.5261274990
 O          3.4375733493        0.5316230610       -1.6661320766
 O          4.0347892369       -1.5539622612       -0.5243846819
 C          5.7066294440        0.5007476511       -0.3115989805
 C          5.9682296186        1.8259578763       -0.6052254089
 C          7.2504519897        2.3143292499       -0.4113634333
 C          8.2441943632        1.4746829643        0.0699977526
 C          7.9672804556        0.1467478075        0.3578906635
 C          6.6864035364       -0.3478748297        0.1678434591
 H          6.4263237761       -1.3743723695        0.3705414615
 H          8.7427675413       -0.5040059320        0.7285463930
 H          9.2414715208        1.8573776459        0.2190022430
 H          7.4701969344        3.3454674519       -0.6366286917
 H          5.1664953223        2.4376107401       -0.9852600415
 H          3.9993958944        0.5825562731        1.6319620374
 H          2.5454044510        0.1268209650        3.4046872319
 H          0.3811185416       -0.8261393178        4.1090244891
 H         -1.2515744329       -1.5783154550        2.4195451630
 H         -1.1565788381       -2.6152269192       -0.1191271146
 C         -0.6867147376       -1.2314225147       -1.6791901418
 C          0.2485642002       -2.1388076632       -2.4184136152
 C         -1.2090523903       -2.1200437022       -2.7659613819
 H         -1.5112763327       -1.6702554137       -3.6997808057
 H         -1.8171934120       -2.9618623851       -2.4676482245
 H          0.9541219474       -1.6987257823       -3.1077390343
 H          0.6369598461       -2.9955385730       -1.8879900579
 H         -0.6307884668       -0.1680992736       -1.8856891939
