  62
        -98.94449007
 C         -2.6480549821       -1.2960485095        0.1164773565
 C         -2.5695507156       -0.2944964541       -0.8814834590
 C         -3.5530952054        0.7940802653       -0.7759095990
 C         -4.4545551170        0.7794827687        0.2223440995
 C         -5.4741501614        1.8507301897        0.4764758707
 C         -4.9303394251        2.9178367070        1.4366970408
 C         -3.5453347322        3.4431170877        1.0579404959
 H         -3.2784493444        4.2120341102        1.7862206175
 H         -2.8140774513        2.6376378541        1.1616392771
 C         -3.4532405107        4.0283826289       -0.3581721856
 H         -4.4523751246        4.2588107279       -0.7299814155
 H         -2.8982961079        4.9678233387       -0.3132125240
 C         -2.7311095219        3.1352884106       -1.3690877942
 H         -1.7633788730        2.8269083633       -0.9627015043
 H         -2.5313545485        3.7294269968       -2.2652237184
 C         -3.4932538841        1.8800569790       -1.8128971322
 H         -4.4972510679        2.1566656333       -2.1412205342
 H         -2.9578838338        1.4522021095       -2.6656898884
 H         -5.6390014801        3.7473142088        1.4679344692
 H         -4.8688903354        2.4843549009        2.4374494271
 H         -5.7567258080        2.3080829480       -0.4696087806
 H         -6.3549156794        1.3873046125        0.9239837466
 O         -4.5069269373       -0.2049336145        1.1548931786
 C         -3.5994081924       -1.2491694566        1.1390356719
 O         -3.7429562136       -2.0666642998        2.0695838661
 H          0.3918549713       -1.6848886752       -1.4875370822
 C          0.6176874299       -1.5401568726       -0.4431319496
 C         -0.3104739788       -1.9038404517        0.5193738991
 C         -0.0083615147       -1.6723641924        1.8586344623
 C          1.1952326576       -1.0975989669        2.2208074922
 C          2.1172382645       -0.7292130131        1.2558420680
 C          1.8163391423       -0.9379690855       -0.0826842231
 N          2.7372818190       -0.5505807453       -1.0714792326
 S          3.4027620875        0.9877688358       -0.9685320465
 O          2.5270789845        1.9093421920       -0.2821728771
 O          3.7701012485        1.3343046797       -2.3243869477
 C          4.8894129428        0.7327548168       -0.0199472790
 C          5.1317500997        1.4975469121        1.1041359296
 C          6.2997616887        1.2858329009        1.8204042217
 C          7.2005638961        0.3188661561        1.4015184700
 C          6.9440590735       -0.4388790335        0.2684483904
 C          5.7791793779       -0.2311284379       -0.4524976954
 H          5.5441858018       -0.7954478235       -1.3393278687
 H          7.6469884287       -1.1898651877       -0.0543553882
 H          8.1077014338        0.1549959320        1.9614490733
 H          6.5007213976        1.8747116427        2.7009603075
 H          4.3997746379        2.2341100600        1.3957300300
 H          2.4108284446       -0.7303668993       -2.0105176986
 H          3.0519085992       -0.2678453812        1.5299088840
 H          1.4177032368       -0.9291923637        3.2636238255
 H         -0.7395369495       -1.9365172066        2.6103350406
 C         -1.6663231315       -2.4579402218        0.1554503271
 H         -2.0006358860       -3.1052352292        0.9768295165
 C         -1.6793737509       -3.2585068723       -1.1298668411
 C         -1.0376841979       -4.6122919940       -1.1539744935
 C         -2.5297173661       -4.4886044633       -1.2156728740
 H         -3.0284398441       -4.7047984836       -2.1486297295
 H         -3.1030793209       -4.7614557954       -0.3417346718
 H         -0.5100190466       -4.9178713395       -2.0444683970
 H         -0.5965672047       -4.9694051840       -0.2357809511
 H         -1.6087785181       -2.6469263703       -2.0204469425
 O         -1.7331337130       -0.2995490731       -1.8237406944
