  62
        -98.94520908
 C         -2.0852223039       -1.4565928423       -0.0079453975
 C         -1.8965004604       -0.4678490834       -1.0037934556
 C         -2.7850662054        0.7017197825       -0.9227884169
 C         -3.6907087080        0.7816498025        0.0683112907
 C         -4.6072771054        1.9460648063        0.3038722714
 C         -3.9673403341        2.9757939123        1.2457681557
 C         -2.5434900144        3.3734440475        0.8554246936
 H         -2.2143490151        4.1296835568        1.5711371786
 H         -1.8853980005        2.5093001803        0.9721218851
 C         -2.4076113559        3.9227068329       -0.5714377632
 H         -3.3855677539        4.2280853118       -0.9453186725
 H         -1.7793145978        4.8152410690       -0.5476038301
 C         -1.7662609280        2.9513957019       -1.5638944649
 H         -1.5193941370        3.5070653059       -2.4723509469
 H         -0.8324287835        2.5650527978       -1.1485705337
 C         -2.6329854944        1.7575477308       -1.9817146255
 H         -3.6112007716        2.1086103111       -2.3167306730
 H         -2.1374548121        1.2672283204       -2.8247192169
 H         -4.6025957964        3.8632691711        1.2666974274
 H         -3.9412659010        2.5533612827        2.2528989942
 H         -4.8489959353        2.4109807236       -0.6499797789
 H         -5.5267185561        1.5732661071        0.7584572265
 O         -3.8404273337       -0.1844333303        1.0096852731
 C         -3.0477621636       -1.3173415713        0.9972963038
 O         -3.2929460977       -2.1222344705        1.9179583740
 O         -1.0416928236       -0.5403409145       -1.9263639015
 C         -1.2486647003       -2.7267337488        0.0468927402
 C          0.1369828393       -2.3929570081        0.5453458593
 C          0.4358574505       -2.5246269795        1.8976793500
 C          1.6913316563       -2.1975439879        2.3772859810
 C          2.6716641863       -1.7257327387        1.5219437761
 C          2.3751642700       -1.5665749109        0.1741533897
 C          1.1181496763       -1.9093068138       -0.3074902481
 H          0.8915408979       -1.7683407483       -1.3525678419
 N          3.3537488819       -1.0855703856       -0.7140473043
 S          4.2544508294        0.2706180119       -0.3400299999
 O          4.9462299553        0.6084480118       -1.5623933749
 O          5.0838136466       -0.0112604608        0.8050045066
 C          3.0836102592        1.5535368768        0.0643779244
 C          2.6015868319        1.6550459505        1.3541179639
 C          1.6741666363        2.6428901201        1.6455004110
 C          1.2538003171        3.5124655556        0.6515403213
 C          1.7497564281        3.3993124757       -0.6384551655
 C          2.6673120596        2.4061059043       -0.9388352660
 H          3.0807752611        2.2866609373       -1.9273370936
 H          1.4226284640        4.0787092068       -1.4091235329
 H          0.5349180782        4.2821994197        0.8831063931
 H          1.2846127159        2.7314961569        2.6471093271
 H          2.9620231568        0.9737472329        2.1067434480
 H          3.0296859522       -1.0315280589       -1.6690317843
 H          3.6577366852       -1.4759798957        1.8790130843
 H          1.9122443038       -2.3155108676        3.4274987151
 H         -0.3314428416       -2.8798716554        2.5710895687
 H         -1.7292922195       -3.3637191280        0.8009897882
 C         -1.2387338700       -3.4722457017       -1.2724788868
 C         -0.7896551863       -4.9012624316       -1.2945882837
 C         -2.2358195205       -4.5663783730       -1.5005629995
 H         -2.6576086490       -4.6812564592       -2.4879034742
 H         -2.9299865954       -4.7859720107       -0.7022864954
 H         -0.2161190885       -5.2496319596       -2.1398588717
 H         -0.5019756951       -5.3476458104       -0.3545587289
 H         -0.9890933431       -2.8514174310       -2.1226509145
