  62
        -98.94489258
 C          2.5712568238        0.1208538861        0.0537010065
 C          2.3689778284       -0.8707240454        1.0419449645
 C          2.1632879845       -2.2388633946        0.5511225344
 C          2.1907389611       -2.4726753772       -0.7735397098
 C          2.0073741452       -3.8190513930       -1.4116017701
 C          0.5441491884       -4.0811850448       -1.7891749117
 C         -0.4519494863       -3.8108130688       -0.6611633368
 H         -0.4981132391       -2.7369732459       -0.4642692728
 H         -1.4389559430       -4.1037393431       -1.0268556272
 C         -0.1569396926       -4.5572991698        0.6469952157
 H         -1.0966357183       -4.9529702169        1.0382887821
 H          0.4983604573       -5.4074902420        0.4517861719
 C          0.4502570151       -3.6904219724        1.7523968646
 H          0.3652268846       -4.2341679166        2.6976278140
 H         -0.1313266123       -2.7686218269        1.8508667919
 C          1.9271155059       -3.3141802456        1.5732497796
 H          2.2863632322       -2.9074444459        2.5233910267
 H          2.5099957249       -4.2080191113        1.3399014824
 H          0.2832183748       -3.4381023399       -2.6326428966
 H          0.4565439939       -5.1208431369       -2.1117967392
 H          2.6158929219       -3.8499106870       -2.3174631405
 H          2.3583300056       -4.5866791132       -0.7243069912
 O          2.3814643689       -1.4937524720       -1.6944657264
 C          2.5367855118       -0.1705745099       -1.3094693420
 O          2.6484526663        0.6298765051       -2.2580895397
 H          0.1905684479        0.8155679850        0.3675761799
 C          0.3106082187        1.8299319181        0.0168124829
 C          1.5779946962        2.3973900280       -0.0043100647
 C          1.7085785954        3.7092090005       -0.4414912925
 C          0.5946236557        4.4218547363       -0.8524370726
 C         -0.6628582809        3.8483279902       -0.8395130280
 C         -0.8033298182        2.5320912345       -0.4094765543
 N         -2.0570923490        1.9008113518       -0.4394725230
 S         -2.3339900508        0.4956042192        0.4423765828
 O         -2.0650523768        0.7174491277        1.8470312388
 O         -1.6348212359       -0.5967993453       -0.1844883228
 C         -4.0886589689        0.3216518305        0.1814903574
 C         -4.9664677929        0.8685894130        1.0984637337
 C         -6.3291714328        0.7623178230        0.8686411977
 C         -6.7885883023        0.1158835115       -0.2690950989
 C         -5.8957482364       -0.4309732176       -1.1787709024
 C         -4.5319457220       -0.3281675349       -0.9545207060
 H         -3.7994585624       -0.7428226920       -1.6276595072
 H         -6.2560351152       -0.9363426408       -2.0602516211
 H         -7.8493088131        0.0349532235       -0.4465616540
 H         -7.0256281114        1.1826923625        1.5760582202
 H         -4.5633120585        1.3516168126        1.9740878520
 H         -2.8380956828        2.5404842242       -0.4123538159
 H         -1.5274088142        4.4045958016       -1.1672538182
 H          0.7088586004        5.4412398706       -1.1886802880
 H          2.6813698309        4.1727064843       -0.4617973622
 C          2.7392781521        1.5652717992        0.4854806777
 H          2.6962686633        1.5462826703        1.5861329998
 C          4.0888278855        2.1046996703        0.0592210908
 C          4.7972871567        3.1260678428        0.8966650504
 C          5.3027329206        1.7165904018        0.8475370185
 H          6.2194527732        1.5120180061        0.3154354854
 H          5.1493447771        1.0861366442        1.7115142367
 H          5.3725111427        3.8917557606        0.3983420234
 H          4.3100469796        3.4558979922        1.8019323877
 H          4.1891191117        2.1630506752       -1.0185885139
 O          2.3726834193       -0.6227222156        2.2802654188
