  62
        -98.94755381
 C         -0.8101821966       -1.1520573188        0.5987942969
 C         -1.2855660382       -0.7800965639       -0.6817955413
 C         -2.2057168773        0.3634092244       -0.7084054609
 C         -2.5052632608        1.0079804214        0.4333869546
 C         -3.4646411509        2.1585563011        0.5723193079
 C         -4.9317933984        1.7237035785        0.6995640178
 C         -5.5736341228        1.2208302657       -0.5943660577
 H         -6.6497218803        1.1666007747       -0.4174655024
 H         -5.4109178267        1.9512813698       -1.3873583250
 C         -5.0811841667       -0.1583551881       -1.0545610749
 H         -4.5928741480       -0.6686395554       -0.2209805947
 H         -5.9374540442       -0.7710894069       -1.3458995012
 C         -4.1219606263       -0.1268646061       -2.2447565248
 H         -3.8141522123       -1.1528639651       -2.4615478464
 H         -4.6413986880        0.2613382531       -3.1236518566
 C         -2.8550325643        0.7082255780       -2.0144333875
 H         -3.0918946958        1.7705820332       -2.0540762954
 H         -2.1425352697        0.4754573379       -2.8092532322
 H         -5.0039419933        0.9501204000        1.4675976903
 H         -5.4997741535        2.5897646003        1.0471848692
 H         -3.3627095923        2.8300628492       -0.2793234701
 H         -3.1848345629        2.6935645028        1.4814826573
 O         -1.9521034830        0.6746204709        1.6306833477
 C         -1.1133754852       -0.4218935199        1.7465747990
 O         -0.7056570628       -0.6378376053        2.9073292941
 O         -0.9720297052       -1.3782836246       -1.7429396043
 C          0.0663237995       -2.3816689220        0.7460780452
 C          1.2846902039       -2.2755213559       -0.1374489135
 C          1.7709457475       -3.3291635265       -0.9005131565
 C          2.9027198998       -3.1622415337       -1.6795809459
 C          3.5748325961       -1.9546308948       -1.7065251329
 C          3.0996817061       -0.8954433793       -0.9402462062
 C          1.9656850889       -1.0653389777       -0.1639372042
 H          1.6008668718       -0.2454393699        0.4377861785
 N          3.7349284340        0.3517991195       -0.9703005609
 S          3.6341221090        1.4162977861        0.3055813781
 O          4.6641556270        2.3961220154        0.0295586464
 O          3.7363884077        0.7448471784        1.5807457776
 C          2.0461441990        2.1993673947        0.1289763494
 C          1.6275560601        2.5794838410       -1.1303894118
 C          0.4258715374        3.2562357071       -1.2588354869
 C         -0.3260339264        3.5500164848       -0.1320825729
 C          0.1036665247        3.1545982191        1.1246400336
 C          1.3007963985        2.4705719463        1.2587738664
 H          1.6625408609        2.1325389485        2.2177899998
 H         -0.4862298298        3.3695356538        2.0014574721
 H         -1.2510264115        4.0947030538       -0.2310148858
 H          0.0816423400        3.5566237461       -2.2352409928
 H          2.2408676064        2.3406759542       -1.9832154328
 H          4.6141078142        0.3934577483       -1.4627285769
 H          4.4556638585       -1.8258145716       -2.3166025053
 H          3.2683954632       -3.9863905021       -2.2731925813
 H          1.2622968802       -4.2791118541       -0.8904636144
 H          0.4084703428       -2.3915222319        1.7921866340
 C         -0.7576801203       -3.6278002044        0.4894029038
 C         -0.4390932076       -4.9091056566        1.1975920337
 C         -1.6625373509       -4.1294433445        1.5728693226
 H         -2.6306098775       -4.5211040505        1.2985045991
 H         -1.6598228579       -3.5881975420        2.5082934574
 H         -0.5705998819       -5.8398852893        0.6665866380
 H          0.3924410873       -4.9066500270        1.8862512924
 H         -1.1215770611       -3.6810469801       -0.5304855296
