  62
        -98.93434815
 C          1.9590497065        1.2932903845        0.4550530698
 C          1.9874217484       -0.0320247923        0.9608357309
 C          3.1393724230       -0.8695697772        0.5878024043
 C          4.0974360423       -0.3507579026       -0.1987272516
 C          5.3943410410       -0.9727599395       -0.6548284534
 C          5.3793786516       -2.4520907176       -1.0559403318
 C          4.1031254941       -2.9106958118       -1.7758847112
 H          3.4985870395       -2.0445094034       -2.0515384097
 H          4.3796344625       -3.4210945179       -2.7003716331
 C          3.2590731111       -3.8749403279       -0.9398468275
 H          3.9216720702       -4.5999217780       -0.4622843702
 H          2.5945661263       -4.4287772315       -1.6075519653
 C          2.3833301168       -3.2163183404        0.1244700769
 H          1.5941370817       -2.6377588140       -0.3644542151
 H          1.8983799923       -4.0114225121        0.6961664145
 C          3.1167285519       -2.2811579920        1.1010052775
 H          2.5476834464       -2.2509240869        2.0342657526
 H          4.1170416953       -2.6468189919        1.3191095630
 H          5.5359000027       -3.0725215432       -0.1748096025
 H          6.2416463910       -2.6087996198       -1.7065391488
 H          5.7146169507       -0.3675583736       -1.5067540820
 H          6.1341233998       -0.8253269387        0.1379494895
 O          4.0194365195        0.9190352543       -0.6839016377
 C          2.9568358957        1.7637295461       -0.3974207214
 O          3.0421645840        2.8704985667       -0.9649862641
 H         -1.7867596592        1.3844028126        1.2882592309
 C         -1.6084154522        1.6480352966        0.2543932254
 C         -0.3434580810        2.0638572331       -0.1364965136
 C         -0.1291929313        2.3831066215       -1.4732442077
 C         -1.1549606394        2.2757678608       -2.3948394640
 C         -2.4144256328        1.8560048803       -2.0030823410
 C         -2.6403892254        1.5406708903       -0.6706577495
 N         -3.9295133439        1.1137145387       -0.2834156569
 S         -4.4248799510       -0.4072725671       -0.7855817262
 O         -4.0270808792       -0.5927923178       -2.1568080242
 O         -5.8402543924       -0.4815876662       -0.5066230121
 C         -3.5537829666       -1.5396611051        0.2837509989
 C         -2.1847564567       -1.6617574637        0.1463310040
 C         -1.4925153241       -2.4698097240        1.0340387087
 C         -2.1800030855       -3.1500370743        2.0276892610
 C         -3.5562758475       -3.0278666782        2.1445981503
 C         -4.2512859713       -2.2056076993        1.2724132905
 H         -5.3187148636       -2.0674447889        1.3337501653
 H         -4.0863649983       -3.5611014229        2.9174307538
 H         -1.6341870678       -3.7751164430        2.7166904800
 H         -0.4188571758       -2.5355432835        0.9660773592
 H         -1.6774683214       -1.1230443494       -0.6389265150
 H         -4.1042037882        1.2069394501        0.7077855382
 H         -3.2190068689        1.7518815223       -2.7122626089
 H         -0.9725685183        2.5233699429       -3.4298112294
 H          0.8521270014        2.7090327726       -1.7836088727
 C          0.7755184287        2.1484692467        0.8746407281
 H          0.4128439845        1.6978986707        1.8087227428
 C          1.1299143271        3.5966693703        1.1483756136
 C          0.2524942218        4.4011095966        2.0579632056
 C          1.6214890197        3.9887926361        2.5078342101
 H          2.3936723029        4.7399677287        2.5775210681
 H          1.7007286926        3.2122315848        3.2546985808
 H         -0.5969947188        3.9063345462        2.5039451959
 H          0.0798791742        5.4391639498        1.8191804070
 H          1.5694848573        4.1001933268        0.2976939262
 O          1.0902110206       -0.4926759415        1.7145425517
