  62
        -98.93751448
 C         -1.4526630450       -0.7744693085       -0.4597917553
 C         -2.7523925782       -1.3284111278       -0.5082407978
 C         -3.8621580735       -0.3656607684       -0.4833722828
 C         -3.5978476496        0.9525159707       -0.4327371375
 C         -4.6035943864        2.0732932135       -0.4621430962
 C         -5.5554219096        2.1694071894        0.7457071248
 C         -6.8992084042        1.4565403487        0.5503129509
 H         -7.6898685579        2.0723543136        0.9839320340
 H         -7.1078411340        1.3866733160       -0.5179926362
 C         -7.0167768508        0.0677483446        1.1855708611
 H         -7.1815322630        0.1795478784        2.2597622355
 H         -7.9010302404       -0.4178997471        0.7670723625
 C         -5.8117010466       -0.8548298292        1.0014067623
 H         -5.0032721460       -0.5392464787        1.6653580371
 H         -6.0988336477       -1.8585212554        1.3215701589
 C         -5.2589227773       -0.9134124360       -0.4360141565
 H         -5.9086351497       -0.3703785091       -1.1208275847
 H         -5.1983466217       -1.9514591005       -0.7693987456
 H         -5.0515577660        1.7962652749        1.6369015868
 H         -5.7543949805        3.2300294075        0.9074173491
 H         -4.0134892900        2.9898272240       -0.5233276540
 H         -5.1909961499        1.9924383236       -1.3796059656
 O         -2.3291535932        1.4437117638       -0.3902723041
 C         -1.2269273167        0.6006018396       -0.3863638265
 O         -0.1314210784        1.1852172155       -0.3206208992
 O         -2.9761855756       -2.5677736595       -0.5719528198
 C         -0.2497721839       -1.6989185616       -0.4876513829
 C          0.6262974698       -1.4433338051        0.7128062588
 C          0.0465363270       -1.4130807677        1.9791360732
 C          0.8103528051       -1.1545814969        3.0999192300
 C          2.1677892608       -0.9093895984        2.9833921190
 C          2.7587231151       -0.9529145306        1.7271686267
 C          1.9911752676       -1.2328858985        0.6041661060
 H          2.4803383279       -1.2841793772       -0.3529055838
 N          4.1330043684       -0.7296207498        1.5786244808
 S          4.7609799989       -0.0745336166        0.1789586055
 O          4.8026375733       -1.0737231758       -0.8598820269
 O          6.0461827111        0.4530662652        0.5875517052
 C          3.6866245775        1.2661008339       -0.2977617044
 C          3.1801386368        1.3061133636       -1.5796969793
 C          2.3703594861        2.3668096357       -1.9486842428
 C          2.0796611203        3.3631790545       -1.0320864953
 C          2.5973440233        3.3099109704        0.2517901808
 C          3.4107287293        2.2537943675        0.6253844490
 H          3.8309205546        2.1894129324        1.6162234489
 H          2.3621096057        4.0846133818        0.9640179160
 H          1.4383765850        4.1816736734       -1.3185130700
 H          1.9592919310        2.4069287194       -2.9451809806
 H          3.4241157673        0.5054753342       -2.2606255467
 H          4.6118865220       -0.4030809651        2.4041526641
 H          2.7641887031       -0.6923401214        3.8562079804
 H          0.3451973413       -1.1324075858        4.0740482695
 H         -1.0167843801       -1.5890817936        2.0700926363
 H         -0.6561268317       -2.7186201219       -0.4142140313
 C          0.4832348777       -1.5574116952       -1.8051365939
 C          1.2895485488       -2.6974228491       -2.3492047680
 C         -0.0037926067       -2.3146413487       -3.0023872741
 H          0.0268228568       -1.8306052637       -3.9669828915
 H         -0.8573102716       -2.9626157290       -2.8660999587
 H          2.2161062882       -2.4789347882       -2.8593459239
 H          1.3159789875       -3.6097432745       -1.7724924082
 H          0.8502310531       -0.5491964352       -1.9656960821
