  62
        -98.93822057
 C          2.0666065095        1.0918927854        0.2751631400
 C          2.1240756435        0.1575906889       -0.7886674043
 C          2.3831462537       -1.2392835489       -0.3971246307
 C          2.5020099255       -1.5588999262        0.9027213440
 C          2.8041345790       -2.9319770236        1.4286898257
 C          4.3163529852       -3.1539156679        1.5740541800
 C          5.1193822783       -2.7671713247        0.3321422291
 H          5.0452605691       -1.6875505830        0.1833651635
 H          6.1675028350       -2.9933289827        0.5391014559
 C          4.6850294464       -3.4852823639       -0.9530861159
 H          5.5768580768       -3.8269232658       -1.4825030420
 H          4.0969006583       -4.3688723645       -0.7030304344
 C          3.8943015480       -2.6130817066       -1.9301732602
 H          4.4375516455       -1.6828237725       -2.1142586343
 H          3.8240951099       -3.1454082491       -2.8824444100
 C          2.4653877886       -2.2567521207       -1.5003269171
 H          1.9226956874       -3.1640217405       -1.2252074914
 H          1.9572719958       -1.8065250324       -2.3586668225
 H          4.6736725211       -2.5535191578        2.4137540454
 H          4.4893429178       -4.2056523871        1.8090020970
 H          2.3321108395       -3.0330836527        2.4075215427
 H          2.3779327676       -3.6728351908        0.7547751290
 O          2.4113228899       -0.6407060345        1.8988889980
 C          2.1790836083        0.6911822526        1.6091038882
 O          2.1093446921        1.4281641904        2.6149036559
 O          1.9814966830        0.4469209479       -2.0044419191
 C          1.7461849030        2.5683718015        0.0960257881
 C          0.2824875801        2.7905207444        0.3872890133
 C         -0.1465699234        3.8679771406        1.1531577562
 C         -1.4888758901        4.0312487967        1.4468882580
 C         -2.4226454990        3.1119628000        1.0047332899
 C         -2.0029021430        2.0320552418        0.2358583839
 C         -0.6619090477        1.8907378567       -0.0851405526
 H         -0.3543850792        1.0472465172       -0.6858705590
 N         -2.9166014844        1.0732846653       -0.2314329943
 S         -2.3979499666       -0.5375483827       -0.2637610719
 O         -1.5963411947       -0.8249390512        0.9048120627
 O         -1.7967326955       -0.8048059790       -1.5454177504
 C         -3.9706478340       -1.3740024680       -0.1587150818
 C         -4.7052365882       -1.5600316941       -1.3147123456
 C         -5.9463164747       -2.1707899790       -1.2284951081
 C         -6.4300752975       -2.5817946211        0.0047861816
 C         -5.6807489237       -2.3900817762        1.1559341379
 C         -4.4392501686       -1.7785824710        1.0769547718
 H         -3.8171711730       -1.6151930588        1.9426015473
 H         -6.0574161246       -2.7133041915        2.1129432527
 H         -7.3960722904       -3.0569973521        0.0692610958
 H         -6.5301717342       -2.3239964739       -2.1216156302
 H         -4.2828631652       -1.2309509744       -2.2498024991
 H         -3.8311250703        1.1624712105        0.1906998114
 H         -3.4665059360        3.2230039077        1.2559363810
 H         -1.8088781618        4.8705481005        2.0453781908
 H          0.5826185377        4.5643800199        1.5403297169
 H          2.3160314867        3.0948526436        0.8801457747
 C          2.1771335948        3.1465371725       -1.2425151996
 C          1.2174830569        3.4324387492       -2.3539405882
 C          1.8366825161        4.5647883885       -1.5944937265
 H          2.5869330627        5.1664971256       -2.0844992881
 H          1.2039394513        5.1115119931       -0.9121812108
 H          1.5470190423        3.2315734070       -3.3616582904
 H          0.1736701269        3.2121619081       -2.1899178944
 H          3.1599171186        2.7942765264       -1.5366666158
