  62
        -98.94093889
 C          1.7298657382        1.0718662091       -0.0147480031
 C          2.1555027779       -0.1373028247       -0.6183687641
 C          3.6103477206       -0.2873304588       -0.7933955359
 C          4.4346834108        0.6946340707       -0.3884989698
 C          5.9328766092        0.6452048464       -0.4594717572
 C          6.5300711932        0.0726441551        0.8336539844
 C          5.8759952248       -1.2310281645        1.2915487321
 H          6.3978214221       -1.5570833317        2.1938629127
 H          4.8398348702       -1.0310425247        1.5740798795
 C          5.9062374006       -2.3570576965        0.2486746485
 H          6.6604228875       -2.1406534122       -0.5088730165
 H          6.2010797645       -3.2848614198        0.7434872573
 C          4.5642232123       -2.6251436286       -0.4354166624
 H          3.7845016127       -2.7509244403        0.3203044291
 H          4.6437908894       -3.5685922155       -0.9822379554
 C          4.0978362806       -1.5570151417       -1.4327204299
 H          4.8952353620       -1.3481001246       -2.1490542366
 H          3.2426162273       -1.9655558920       -1.9795031027
 H          7.5983421561       -0.0889286086        0.6786332416
 H          6.4098249463        0.8131548849        1.6277641854
 H          6.2315889109        0.0371309897       -1.3110950315
 H          6.3044043892        1.6614334958       -0.6018663723
 O          3.9898842407        1.8388829611        0.1904649920
 C          2.6381526770        2.0454816650        0.4108663883
 O          2.3738274477        3.1174960148        0.9900358337
 O          1.3792932147       -1.0524250774       -0.9955995540
 C          0.2628222807        1.3624035558        0.2543335745
 C         -0.4185204429        0.1413801643        0.8197942065
 C         -0.0106764931       -0.3345456002        2.0637505313
 C         -0.6007180046       -1.4515680264        2.6213995642
 C         -1.6282896383       -2.1042254930        1.9624404558
 C         -2.0419971459       -1.6376558564        0.7211681355
 C         -1.4374533691       -0.5222938873        0.1564272220
 H         -1.7429755930       -0.2139090573       -0.8285388580
 N         -3.0794566118       -2.2749070501        0.0282159273
 S         -4.1292274077       -1.3922277728       -0.9187622733
 O         -5.3380293656       -2.1886895822       -0.9512593654
 O         -3.5430428648       -1.0971647696       -2.2015866961
 C         -4.4250387160        0.1225728788       -0.0211773623
 C         -4.8580357691        0.0414077231        1.2875681785
 C         -5.0824446939        1.2119516462        1.9935595152
 C         -4.8746265788        2.4387063381        1.3817212096
 C         -4.4492279613        2.5042005561        0.0642156313
 C         -4.2206183934        1.3358669418       -0.6454380034
 H         -3.8835129742        1.3410598733       -1.6699394098
 H         -4.2904221672        3.4592632686       -0.4111627192
 H         -5.0460454612        3.3494698726        1.9334737773
 H         -5.4161594487        1.1648957613        3.0175717149
 H         -5.0184340398       -0.9262930651        1.7339048836
 H         -3.5402934820       -3.0223043418        0.5245681726
 H         -2.0934779176       -2.9760781800        2.3965479834
 H         -0.2653070611       -1.8148490782        3.5812070397
 H          0.7891897234        0.1786969220        2.5807533538
 H          0.2682001412        2.1360852484        1.0400428602
 C         -0.4837559615        1.9565447069       -0.9303310055
 C          0.2135924674        2.8172595037       -1.9395932236
 C         -0.2900380738        1.4617505409       -2.3307281262
 H         -1.1538354123        1.3932328751       -2.9768101741
 H          0.4254224385        0.6697592701       -2.4869506065
 H         -0.3022066974        3.6881591283       -2.3149239158
 H          1.2796931282        2.9547683469       -1.8307996565
 H         -1.4907317265        2.2571571367       -0.6563087958
