  62
        -98.93607477
 C          1.4901726492        1.2799700712        0.3789362999
 C          2.0062754398        0.3287605317        1.2939877500
 C          3.3659774799       -0.1515633480        1.0294630498
 C          4.0458152094        0.3251271519       -0.0292488006
 C          5.4553627094       -0.0364668477       -0.4127521309
 C          5.5692169496       -1.3231273479       -1.2413125305
 C          5.3229123202       -2.6185673778       -0.4670785000
 H          5.6445613503       -3.4419265379       -1.1078492399
 H          5.9517208405       -2.6343656473        0.4236522598
 C          3.8580643804       -2.8481357481       -0.0687024295
 H          3.2098080500       -2.1998877585       -0.6636450295
 H          3.5721932707       -3.8771001083       -0.2993519191
 C          3.5586005408       -2.6185108178        1.4128938805
 H          4.0929103612       -3.3581463174        2.0137175506
 H          2.4867440309       -2.7689134681        1.5698150009
 C          3.9243439905       -1.2179970975        1.9223738399
 H          3.4832570508       -1.0883429973        2.9137487500
 H          5.0066766705       -1.1192479371        2.0045961096
 H          4.8710302093       -1.2622199584       -2.0793526503
 H          6.5807543295       -1.3576717177       -1.6524014108
 H          5.8355820190        0.7930900522       -1.0126991913
 H          6.0671373297       -0.1256146072        0.4854127589
 O          3.5172803088        1.2379896415       -0.8843247007
 C          2.2228470587        1.7214174611       -0.7236074305
 O          1.8719925282        2.5186366407       -1.6101725506
 O          1.3607739502       -0.0914844382        2.2927792103
 C          0.0701640791        1.7794539408        0.6119122601
 C         -0.7625607912        1.4729639202       -0.6073133095
 C         -1.1311316217        2.3560494497       -1.6148658397
 C         -1.8871804919        1.9199985891       -2.6902332793
 C         -2.3102405215        0.6076946490       -2.7853826488
 C         -1.9289358409       -0.2932684106       -1.7980835386
 C         -1.1551762308        0.1429432500       -0.7354821790
 H         -0.8335744603       -0.5779359297        0.0018124112
 N         -2.3313992905       -1.6369676207       -1.8449644781
 S         -2.7226141598       -2.4092711804       -0.4130802177
 O         -1.5276881795       -2.8605670898        0.2545316121
 O         -3.6509852296       -3.4479791408       -0.8078484771
 C         -3.5650389699       -1.1747739804        0.5623871322
 C         -3.0140343497       -0.7250101498        1.7446482819
 C         -3.6679015198        0.2721406602        2.4513253417
 C         -4.8550261502        0.7982415796        1.9667529619
 C         -5.4025084204        0.3271140491        0.7830596823
 C         -4.7523124802       -0.6673419409        0.0714249224
 H         -5.1516745404       -1.0626503713       -0.8483589774
 H         -6.3288516006        0.7346870887        0.4117970224
 H         -5.3558889102        1.5791066796        2.5167525518
 H         -3.2401339897        0.6374000306        3.3713351015
 H         -2.0843610795       -1.1514992594        2.0888449217
 H         -2.9782860606       -1.8617893012       -2.5864598578
 H         -2.9115626417        0.2780471385       -3.6185562385
 H         -2.1569187824        2.6220012688       -3.4646366194
 H         -0.8067092721        3.3800803698       -1.5944039701
 H         -0.3090734704        1.1194293110        1.4092184705
 C          0.0765645188        3.1709188010        1.2280579197
 C          0.3810107582        4.4488333609        0.5088269392
 C         -1.0019732816        4.1924283706        1.0303083697
 H         -1.3282768915        4.7550368208        1.8923258096
 H         -1.7892829117        3.9701313001        0.3285560800
 H          0.9936644581        5.1743174413        1.0256183688
 H          0.5822150179        4.4052808506       -0.5487201208
 H          0.4864317192        3.1067828415        2.2337610596
