  62
        -98.94490147
 C         -1.9292257303       -0.1732249602        0.0760864593
 C         -2.9536722203       -1.0076878500        0.5846062697
 C         -4.2608104003       -0.3706823399        0.7761318293
 C         -4.4116036204        0.9377609499        0.5011412786
 C         -5.6767679004        1.7355281100        0.6658868881
 C         -6.6417888503        1.6260268194       -0.5226957919
 C         -7.3682276003        0.2863647193       -0.6504173213
 H         -7.8424517603        0.0395921397        0.2999777388
 H         -8.1637893502        0.4228987089       -1.3856411814
 C         -6.4753834802       -0.8784126009       -1.1006550606
 H         -5.5539485002       -0.4841456211       -1.5355488608
 H         -6.9825357201       -1.4436286813       -1.8858869304
 C         -6.1155175502       -1.8667229304        0.0087592899
 H         -7.0199232702       -2.3675109902        0.3611795901
 H         -5.4517081102       -2.6262966906       -0.4118296197
 C         -5.4067380203       -1.2327016498        1.2127734296
 H         -6.1152178504       -0.6544681095        1.8052664893
 H         -5.0016871504       -2.0350798794        1.8341539100
 H         -6.0875097103        1.8294945289       -1.4419320319
 H         -7.3917467403        2.4119134694       -0.4065803223
 H         -6.1870883205        1.4304979204        1.5798513682
 H         -5.3739796304        2.7798687300        0.7679443776
 O         -3.3923962804        1.7136933097        0.0447967483
 C         -2.1348087703        1.1784638497       -0.1994560714
 O         -1.3090889503        1.9974065695       -0.6455543117
 H          1.7004830197        0.6328253694       -0.9816491808
 C          1.5567633597        0.6117711399        0.0849848192
 C          0.4751569197       -0.0485192298        0.6440908094
 C          0.3223919196       -0.0263875292        2.0292144294
 C          1.2194492995        0.6528410513        2.8287432991
 C          2.2971627995        1.3150809610        2.2657098189
 C          2.4622916596        1.2960838503        0.8868115889
 N          3.5375097696        1.9749769701        0.2908533986
 S          4.4544895797        1.2463787695       -0.9004992309
 O          5.6352511597        2.0748148495       -1.0051773413
 O          3.6823347598        1.0805283289       -2.1045012309
 C          4.8866751297       -0.3402043401       -0.2103508701
 C          5.9783804897       -0.4124094597        0.6332653100
 C          6.2830504597       -1.6224994594        1.2345582506
 C          5.4878795397       -2.7324138695        0.9917109211
 C          4.3958350498       -2.6432654300        0.1426124410
 C          4.0887354698       -1.4366930003       -0.4667770596
 H          3.2511986898       -1.3315600006       -1.1360896597
 H          3.7795442998       -3.5076230901       -0.0469342786
 H          5.7212649097       -3.6734447493        1.4642868116
 H          7.1350038596       -1.6964011190        1.8910609507
 H          6.5744066996        0.4724419104        0.7876460096
 H          4.1301163896        2.4678694504        0.9428111584
 H          2.9961682694        1.8536814414        2.8874030787
 H          1.0829193194        0.6666381218        3.8995232391
 H         -0.5215505204       -0.5418898490        2.4670018796
 C         -0.5583777503       -0.7756443503       -0.1782538403
 H         -0.6262094302       -1.8100266301        0.1899082702
 C         -0.2595508602       -0.8075833710       -1.6614960702
 C          0.6540380399       -1.8552324112       -2.2209923297
 C         -0.8186179101       -1.9229034314       -2.4912049997
 H         -1.1748069300       -1.6972960519       -3.4852173499
 H         -1.3975598001       -2.6787028512       -1.9806268694
 H          1.3160179600       -1.5827595816       -3.0299329297
 H          1.0671234499       -2.5748613509       -1.5300723393
 H         -0.2395614602        0.1797013688       -2.1100649707
 O         -2.7813234903       -2.2229001598        0.8694318703
