  62
        -98.93918190
 C          2.1782118312        0.2550671932        0.3646121551
 C          3.2078294718        0.6626604454       -0.5192217580
 C          4.2419362702       -0.3427573342       -0.8019174879
 C          4.1562232444       -1.5705523673       -0.2609422260
 C          5.1128592640       -2.7100728561       -0.4855194483
 C          6.3553534231       -2.6709589608        0.4147791719
 C          7.3798681192       -1.5916718657        0.0627566619
 H          8.2878341564       -1.8166151440        0.6258256953
 H          7.6282553429       -1.6603037903       -0.9967454301
 C          6.9329636792       -0.1618074119        0.3976192928
 H          6.0942118990       -0.1967162109        1.0967825277
 H          7.7465964474        0.3655633598        0.9007356039
 C          6.5307200210        0.6771852199       -0.8152601198
 H          7.3998811237        0.8314884340       -1.4584414054
 H          6.1965638167        1.6549161711       -0.4593659467
 C          5.4020692530        0.0689419890       -1.6578996757
 H          5.0457364472        0.8306627970       -2.3553468550
 H          5.7744120467       -0.7817551007       -2.2279542114
 H          6.8438060328       -3.6450796472        0.3373298144
 H          6.0318207345       -2.5430909140        1.4504087591
 H          5.4202842871       -2.7291015200       -1.5314792851
 H          4.5589779960       -3.6260342703       -0.2685845984
 O          3.1395114866       -1.9320293275        0.5673740903
 C          2.1478087165       -1.0308822166        0.9129517470
 O          1.3040946171       -1.4881970679        1.7118679161
 O          3.2837508472        1.7984861161       -1.0557282916
 C          1.0305034821        1.1672079658        0.7700973429
 C         -0.0000625419        1.2379787188       -0.3322541883
 C          0.2045866032        1.9917335740       -1.4834572450
 C         -0.7647248265        2.0387615975       -2.4684463647
 C         -1.9575550179        1.3538742916       -2.3204583187
 C         -2.1650548998        0.5848773307       -1.1810262979
 C         -1.1853343106        0.5278596350       -0.1999194356
 H         -1.3548787798       -0.0806320790        0.6773550146
 N         -3.3521359435       -0.1473356813       -1.0191978387
 S         -3.9833951164       -0.3306134552        0.5351992311
 O         -3.8807422797        0.9158453442        1.2606432551
 O         -3.3790085536       -1.4840128202        1.1531580811
 C         -5.6895316236       -0.6796529688        0.1502316939
 C         -6.0450145187       -1.9727805227       -0.1842108241
 C         -7.3639974485       -2.2405632317       -0.5145934991
 C         -8.3000657956       -1.2169474559       -0.5057442177
 C         -7.9289677931        0.0752579940       -0.1656200907
 C         -6.6111756921        0.3503136468        0.1645587345
 H         -6.2782398682        1.3369926497        0.4438932177
 H         -8.6595976505        0.8679070345       -0.1557312386
 H         -9.3259054355       -1.4286571147       -0.7626736019
 H         -7.6566004641       -3.2446137939       -0.7763768807
 H         -5.2845625681       -2.7362655212       -0.1672443813
 H         -4.0658596387        0.1047537850       -1.6892863406
 H         -2.7184183226        1.4035718978       -3.0846138290
 H         -0.5939906764        2.6261590805       -3.3579896604
 H          1.1369975837        2.5188874044       -1.6077995527
 H          0.5536421286        0.6777211743        1.6309483126
 C          1.4877483913        2.5476735742        1.1994830777
 C          0.5382385425        3.4089067875        1.9746743423
 C          1.7377496549        2.8172158841        2.6510657383
 H          2.5532161350        3.4714811444        2.9207695781
 H          1.5822384238        2.0036571973        3.3453780579
 H          0.5291361559        4.4704851583        1.7808675006
 H         -0.4328133046        2.9955176687        2.2067394085
 H          2.1413402879        3.0305534477        0.4856334927
