  62
        -98.93153059
 C         -1.7453212115       -0.8065486071        0.2961185230
 C         -2.1324602367        0.5474273301        0.1248921677
 C         -3.5325514055        0.7940516011       -0.2484123559
 C         -4.3577359344       -0.2557037548       -0.4109927568
 C         -5.8281050531       -0.1736529617       -0.7084473618
 C         -6.6042110325        0.1915017899        0.5730791219
 C         -7.2928702504        1.5555897185        0.5267210169
 H         -8.1870618129        1.4808070506       -0.0956358338
 H         -7.6170745220        1.7929606284        1.5422063755
 C         -6.4457458164        2.7138055436       -0.0091801983
 H         -6.4230631042        2.6789311119       -1.0994358393
 H         -6.9620693925        3.6372814939        0.2616433915
 C         -5.0033933064        2.7867945771        0.5085181646
 H         -4.9138054514        2.2839891162        1.4717163656
 H         -4.7544359807        3.8370620626        0.6740254574
 C         -3.9455703407        2.2243743490       -0.4596429958
 H         -4.2860529776        2.3576671149       -1.4904986564
 H         -3.0229531565        2.8010835142       -0.3432267600
 H         -7.3632583643       -0.5676512221        0.7674645204
 H         -5.9082692032        0.1625775569        1.4140695458
 H         -6.0045627374        0.5648700707       -1.4873342398
 H         -6.1401789335       -1.1512908769       -1.0762354349
 O         -3.9536911355       -1.5389338494       -0.2407248784
 C         -2.6453500840       -1.8566807939        0.1106036864
 O         -2.4442008855       -3.0789781558        0.2190926211
 O         -1.3370752580        1.5127381192        0.2898812564
 C         -0.3004495719       -1.0518026297        0.6908428099
 C          0.5718959966       -1.2938580563       -0.5149555046
 C          0.2251306048       -2.2194792275       -1.4941178959
 C          1.0539630835       -2.4275257488       -2.5815339059
 C          2.2375190451       -1.7228353135       -2.7136489561
 C          2.5958033852       -0.7971086326       -1.7400671235
 C          1.7609375348       -0.5917583838       -0.6498669084
 H          2.0276304347        0.1452515188        0.0905806078
 N          3.8119838377       -0.1108262727       -1.8253809776
 S          4.0206519754        1.4190835491       -1.1842543748
 O          2.8593732782        2.2526331232       -1.3848068162
 O          5.2505833258        1.8845099598       -1.7887734573
 C          4.2984603077        1.1218270490        0.5487002131
 C          5.2815513370        0.2204396952        0.9067796122
 C          5.5053934151       -0.0258893268        2.2517509230
 C          4.7482682564        0.6310747445        3.2101257271
 C          3.7687814026        1.5374583250        2.8343480103
 C          3.5396847309        1.7882786709        1.4904141005
 H          2.7772918522        2.4750563622        1.1552554069
 H          3.1781836098        2.0465322985        3.5792237560
 H          4.9202870629        0.4356764106        4.2567588957
 H          6.2653339759       -0.7303409916        2.5490156068
 H          5.8491090541       -0.2683845978        0.1327750800
 H          4.3279837646       -0.2466807042       -2.6816759902
 H          2.8810196421       -1.8871985779       -3.5644582606
 H          0.7742023333       -3.1466048138       -3.3368438281
 H         -0.6936894643       -2.7761807715       -1.3904093357
 H          0.0264329687       -0.0998095520        1.1393246548
 C         -0.1377113882       -2.1291213277        1.7553169841
 C          0.4937859944       -3.4606696641        1.4971454765
 C          1.2252337278       -2.4331264085        2.3044573311
 H          1.3321930090       -2.5864817999        3.3673401907
 H          2.0664147339       -1.9389788933        1.8407019049
 H          0.0716212330       -4.3173781313        1.9996288914
 H          0.8457588288       -3.6737191228        0.5004701594
 H         -0.9583487560       -2.1187321100        2.4655346111
