  62
        -98.93936982
 C         -2.1842346583        0.0144744473        0.1479464439
 C         -2.0266654201        1.0563488361        1.0960957836
 C         -1.4628827007        2.3290833188        0.6117470457
 C         -1.1663594716        2.4638313959       -0.6938294514
 C         -0.6361181682        3.6409461743       -1.4857060367
 C         -0.0599168530        4.8604203572       -0.7727050683
 C          1.2630158653        4.6058185992       -0.0483228796
 H          2.0488154597        4.4789256596       -0.7970451804
 H          1.5074142666        5.4894357334        0.5448042301
 C          1.2974679072        3.3759868055        0.8559781698
 H          1.1215376603        2.4749016605        0.2645013261
 H          2.3067899870        3.2834985135        1.2675621353
 C          0.3253850394        3.3910496865        2.0341178315
 H          0.5096223930        4.2710756320        2.6542883883
 H          0.5399399948        2.5031273912        2.6374715869
 C         -1.1670148110        3.3561423511        1.6650303013
 H         -1.5240915260        4.3397357110        1.3700576252
 H         -1.7271769896        3.0561764833        2.5558206435
 H         -0.7957875798        5.2818059189       -0.0941452359
 H          0.1269821333        5.6137423419       -1.5426051632
 H          0.1240014568        3.2331295180       -2.1592632783
 H         -1.4678711014        3.9701093912       -2.1182871127
 O         -1.3733337344        1.4464741781       -1.5784881105
 C         -1.8009670729        0.1848822438       -1.1819777461
 O         -1.7917001542       -0.6521892210       -2.1013799404
 O         -2.3397275864        0.9268778544        2.3104803615
 C         -2.6025191855       -1.3505925601        0.6696146301
 C         -1.5106004262       -2.3329819409        0.3263522955
 C         -1.6651492238       -3.3940305559       -0.5545153158
 C         -0.5870418469       -4.2090215239       -0.8547484707
 C          0.6580573683       -3.9759811723       -0.2998677107
 C          0.8229182184       -2.9170802011        0.5876024372
 C         -0.2644694170       -2.1196740906        0.9050679411
 H         -0.1353636533       -1.3028743507        1.6012859528
 N          2.0720996255       -2.6661878197        1.1823348959
 S          2.7029133429       -1.1239879796        1.3051315925
 O          4.0421839156       -1.3271403252        1.8124911400
 O          1.8384644108       -0.2912516139        2.0998507334
 C          2.7943616123       -0.5147842619       -0.3672239069
 C          1.6450971449       -0.0489198058       -0.9724383757
 C          1.7019114772        0.3685436507       -2.2923735548
 C          2.9054208015        0.3235124811       -2.9789412824
 C          4.0542594395       -0.1401955903       -2.3554578087
 C          3.9994433052       -0.5714463348       -1.0399541392
 H          4.8660279331       -0.9401400418       -0.5154028471
 H          4.9887982641       -0.1714864169       -2.8920648195
 H          2.9441747800        0.6516942740       -4.0056930075
 H          0.7978238583        0.7113587715       -2.7717767101
 H          0.7225473870       -0.0229330721       -0.4128910605
 H          2.7965873979       -3.3160111895        0.9124483423
 H          1.4983659066       -4.6064177749       -0.5482356018
 H         -0.7151238773       -5.0297991948       -1.5439410449
 H         -2.6212566189       -3.5662662622       -1.0205310942
 H         -2.6041814019       -1.2249438296        1.7656994598
 C         -3.9995635050       -1.8141028139        0.2950138028
 C         -5.1018016185       -0.8205096693        0.0817169073
 C         -4.5990863315       -1.6400394887       -1.0668373532
 H         -5.2339708523       -2.4292522046       -1.4431524093
 H         -4.0019999919       -1.1603305080       -1.8246622595
 H         -6.0790482690       -1.0374105221        0.4863093239
 H         -4.8369902600        0.2267931856        0.1146206662
 H         -4.2695499266       -2.7221108150        0.8267536078
