  62
        -98.93882195
 C         -2.5777586544       -0.1120885879       -0.4565703509
 C         -2.2651674169       -0.7831515689        0.7485436958
 C         -1.7735072530       -2.1661118269        0.6221217317
 C         -1.6405674841       -2.7091395406       -0.5999682973
 C         -1.2039722216       -4.1020921428       -0.9857516864
 C         -0.0834806005       -4.7636906334       -0.1777377527
 C          1.0549959826       -3.8240607551        0.2445575081
 H          0.9699745803       -2.8641727685       -0.2693018774
 H          2.0083242707       -4.2671786364       -0.0506485442
 C          1.0952548979       -3.5744595569        1.7532643085
 H          2.0935293532       -3.2209770667        2.0213610023
 H          0.9259841626       -4.5175587264        2.2785350140
 C          0.0963197857       -2.5321940837        2.2493371234
 H          0.3498063734       -1.5578507324        1.8211652022
 H          0.1974676283       -2.4488448292        3.3343962656
 C         -1.3753775706       -2.8269596395        1.9106855672
 H         -1.9999573828       -2.3704890106        2.6835079565
 H         -1.5710598333       -3.8965278456        1.8948267188
 H          0.3177990481       -5.5630999101       -0.8038702903
 H         -0.5031905073       -5.2395482169        0.7074539718
 H         -0.8961843827       -4.0199540961       -2.0316257204
 H         -2.0882581305       -4.7473360092       -0.9626654323
 O         -1.9644684333       -2.0256529104       -1.7375349979
 C         -2.4037419027       -0.7150677945       -1.6985417452
 O         -2.6126301576       -0.2063054636       -2.8217788836
 O         -2.3980843905       -0.2557729090        1.8840763010
 C         -2.9874321305        1.3487920302       -0.4187287877
 C         -1.9029757195        2.1500843299        0.2642035253
 C         -2.1539741889        3.2131567114        1.1209541476
 C         -1.1030248768        3.8865219162        1.7218785668
 C          0.2075495675        3.5073492508        1.5005094762
 C          0.4687713932        2.4412475329        0.6442600405
 C         -0.5821758022        1.8020054667        0.0115245890
 H         -0.3711993753        0.9961579397       -0.6760821912
 N          1.7823495741        1.9799258491        0.4573638995
 S          2.1569922222        0.8282682786       -0.7055322188
 O          1.9334088686        1.3573130638       -2.0355724358
 O          1.4933121813       -0.4076668674       -0.3821910358
 C          3.9060907228        0.6641252906       -0.4063449384
 C          4.7985280114        1.4251710476       -1.1372444854
 C          6.1543366866        1.3044848371       -0.8753756010
 C          6.5919618951        0.4306662173        0.1085203495
 C          5.6845457206       -0.3285556690        0.8324763007
 C          4.3278934380       -0.2123446499        0.5750926911
 H          3.5840834464       -0.7864317907        1.1033700744
 H          6.0282714666       -1.0098156732        1.5939804572
 H          7.6474097854        0.3376341306        0.3098622184
 H          6.8624369342        1.8900698424       -1.4391981243
 H          4.4130489346        2.0811407250       -1.9012225668
 H          2.4933219031        2.6897898049        0.5545294179
 H          1.0216503305        4.0182349842        1.9905587064
 H         -1.3103886576        4.7135359047        2.3839959192
 H         -3.1701888756        3.5103943995        1.3230469644
 H         -3.0494641683        1.6762811594       -1.4680787291
 C         -4.3476044313        1.5098309018        0.2281110247
 C         -5.2703270476        2.6071070359       -0.2075729162
 C         -5.5707725497        1.1856392074       -0.5739849451
 H         -6.3921728528        0.6858048539       -0.0832143399
 H         -5.4203612919        0.8759514678       -1.5983999240
 H         -5.8915174960        3.0839120623        0.5355606830
 H         -4.9281886677        3.2678263810       -0.9899627898
 H         -4.3430937490        1.2248289094        1.2737434820
