  62
        -98.93555804
 C         -0.3221786921       -2.0452739339       -0.4908764916
 C         -0.9303508109       -0.8296909620       -0.8848876593
 C         -2.3007513464       -0.5865513354       -0.3855195386
 C         -2.8613068021       -1.4635232664        0.4638221434
 C         -4.2274173640       -1.4267491541        1.1024560612
 C         -4.6935769748       -0.0741365809        1.6627562521
 C         -5.8155891023        0.5704109770        0.8458570839
 H         -6.5074339705       -0.2137669805        0.5311751846
 H         -6.3698594090        1.2527686423        1.4942535612
 C         -5.3607017217        1.3631703128       -0.3781987194
 H         -6.2546887989        1.6433243852       -0.9402910658
 H         -4.8792826042        2.2870103533       -0.0500974264
 C         -4.4019524798        0.6246712157       -1.3139445763
 H         -4.7092877034       -0.4138107638       -1.4315472872
 H         -4.4696976652        1.0913172023       -2.2987515407
 C         -2.9349859689        0.6908054762       -0.8632303906
 H         -2.8174806653        1.4478894700       -0.0826820481
 H         -2.3045888488        1.0166452682       -1.6964178775
 H         -5.0705210475       -0.2460531444        2.6726307409
 H         -3.8437348084        0.6018273306        1.7512515173
 H         -4.9581015391       -1.8000866667        0.3800703172
 H         -4.1811833266       -2.1640967933        1.9073261588
 O         -2.2168809647       -2.5999865615        0.8587552356
 C         -0.9549391090       -2.9175749750        0.3959096495
 O         -0.5060941226       -3.9973272588        0.8345930900
 O         -0.3838628539        0.0254082429       -1.6270275224
 C          1.0703642888       -2.4688010470       -0.9327667453
 C          2.1056266362       -1.9258151013        0.0177756402
 C          3.1001019412       -2.7376729702        0.5500236321
 C          4.0256447639       -2.2198984451        1.4394591769
 C          3.9693239316       -0.8919607318        1.8234231948
 C          2.9774406632       -0.0727461713        1.2954042190
 C          2.0661702072       -0.5892390205        0.3877931479
 H          1.2998705435        0.0503755955       -0.0168731354
 N          2.8959158329        1.2834541241        1.6379549886
 S          1.4189330632        2.0686909308        1.6498977815
 O          1.6499386837        3.2438349546        2.4676638951
 O          0.3509764082        1.2044420477        2.1020704259
 C          1.1412520155        2.5962455498       -0.0266816762
 C          2.1716764912        2.6231483496       -0.9431358395
 C          1.9072447702        3.0643190742       -2.2296452343
 C          0.6299549797        3.4759814949       -2.5736453946
 C         -0.3914993563        3.4529171410       -1.6381442876
 C         -0.1339990673        3.0091567714       -0.3522954899
 H         -0.9004879566        2.9594129464        0.4052846558
 H         -1.3874365840        3.7678340413       -1.9065880284
 H          0.4265220570        3.8107802727       -3.5786918879
 H          2.6988592886        3.0771871519       -2.9617394838
 H          3.1532191629        2.2874380593       -0.6513089207
 H          3.5016880592        1.5878147288        2.3852402354
 H          4.6814391741       -0.4916743964        2.5287954001
 H          4.7922953536       -2.8599821205        1.8490280100
 H          3.1323620507       -3.7826808770        0.2785543838
 H          1.0815230228       -3.5669370439       -0.8408178218
 C          1.3654439415       -2.1329657017       -2.3881980436
 C          2.2793059643       -1.0281910751       -2.8152496365
 C          2.7091606087       -2.4537120130       -2.9738730283
 H          2.7523114875       -2.8774344923       -3.9657577834
 H          3.4676393158       -2.8241805508       -2.3007696535
 H          2.0003058777       -0.4640802760       -3.6915067261
 H          2.7494184178       -0.4325851843       -2.0491460831
 H          0.5026499532       -2.3134209490       -3.0213030475
