  62
        -98.93441417
 C          2.0299784369        0.9890005195        0.5439554513
 C          2.7353802837        0.0208881931        1.3007255988
 C          4.1634041676       -0.1610190689        0.9919671159
 C          4.7191781315        0.5936685376        0.0285191135
 C          6.1341932942        0.5423260207       -0.4778812456
 C          6.2427841558       -0.3890617605       -1.6970020602
 C          6.4862983111       -1.8604359555       -1.3638586516
 H          6.4130285563       -2.4218403249       -2.2981744600
 H          7.5052221482       -1.9797932852       -0.9894575470
 C          5.5174013522       -2.4701617810       -0.3473122136
 H          4.4988948972       -2.1445004437       -0.5674915928
 H          5.5419097045       -3.5547916250       -0.4701040984
 C          5.8731331980       -2.1267066683        1.1069578734
 H          6.8741619582       -1.6967545463        1.1372892371
 H          5.9134894159       -3.0455436145        1.6958152195
 C          4.8865788006       -1.1893375946        1.8182383779
 H          4.0905419683       -1.7820742101        2.2800518302
 H          5.4070371391       -0.6778385293        2.6351276121
 H          5.3215678113       -0.2907148638       -2.2770065339
 H          7.0645003037       -0.0453416112       -2.3285760371
 H          6.3883661198        1.5567714390       -0.7922902913
 H          6.8159746278        0.2392385430        0.3111323063
 O          4.0080850393        1.5123637635       -0.6774020705
 C          2.6543423316        1.7298526768       -0.4602771209
 O          2.1601511046        2.5886917300       -1.2116253554
 H         -1.3453886137       -0.5477970287        1.7288648029
 C         -1.2418375373       -0.5672675781        0.6524021910
 C         -0.2917002479        0.2395294114        0.0438252178
 C         -0.1602254940        0.1885295106       -1.3402963960
 C         -0.9575058606       -0.6566723938       -2.0906781466
 C         -1.9038533450       -1.4610187344       -1.4797032462
 C         -2.0464612289       -1.4134705753       -0.0997834786
 N         -3.0352218593       -2.2060308147        0.5179540382
 S         -4.6112875395       -1.9121284211        0.0192255052
 O         -5.4525092812       -2.4196038108        1.0787015427
 O         -4.8116328472       -2.4864892556       -1.2861831555
 C         -4.7028510086       -0.1334298002       -0.0647310103
 C         -4.8810674624        0.5672905836        1.1118839419
 C         -4.8518009097        1.9519052579        1.0788277615
 C         -4.6309458679        2.6087280290       -0.1222521009
 C         -4.4562033724        1.8908391957       -1.2947824776
 C         -4.4918093359        0.5057331347       -1.2697899902
 H         -4.3640485254       -0.0870527073       -2.1603144054
 H         -4.2851645066        2.4048538271       -2.2268723427
 H         -4.5914096672        3.6859291175       -0.1435923967
 H         -4.9910993023        2.5139802865        1.9883274980
 H         -5.0508627977        0.0196132392        2.0252937311
 H         -2.9849792432       -2.1934080872        1.5269184243
 H         -2.5381815538       -2.1206465390       -2.0496508768
 H         -0.8418667572       -0.6890102830       -3.1635485100
 H          0.5692005266        0.8241757388       -1.8194501564
 C          0.5591705388        1.1646784092        0.8752223884
 H          0.4712612274        0.8373068041        1.9233778841
 C          0.0865784196        2.6108904235        0.8099941991
 C         -0.8997391415        3.1162803164       -0.1959931915
 C         -1.3102136807        2.9564084890        1.2347890057
 H         -1.4644804172        3.8398663885        1.8349566608
 H         -1.9734518970        2.1375199610        1.4707130275
 H         -0.7437602765        4.1094262015       -0.5876665250
 H         -1.2969098071        2.4209902394       -0.9184926001
 H          0.8690218815        3.3036045807        1.1014314291
 O          2.1877047299       -0.6655123613        2.2067206993
