  62
        -98.93785518
 C          2.5864347051        1.1446668024        0.4880718771
 C          3.4351142843        0.8385382047       -0.6048569664
 C          4.5960878457       -0.0126603393       -0.2927994215
 C          4.7899911921       -0.4412240013        0.9666343258
 C          5.8955111215       -1.3571720471        1.4036211536
 C          5.4609080248       -2.8275788233        1.3292526855
 C          4.8122181703       -3.2133264199       -0.0001759467
 H          4.5756964153       -4.2783542376        0.0506671678
 H          3.8649440102       -2.6788129900       -0.1028295099
 C          5.6838052562       -2.9414018298       -1.2342342112
 H          6.7249093872       -2.8194881957       -0.9330741624
 H          5.6370962369       -3.8104265354       -1.8939032732
 C          5.2508709990       -1.7302496660       -2.0624706450
 H          4.1839024215       -1.8031210064       -2.2873087546
 H          5.7885271426       -1.7595553595       -3.0139458990
 C          5.5171384282       -0.3587860976       -1.4291218308
 H          6.5602438503       -0.2952456828       -1.1128844870
 H          5.3433679000        0.4004241763       -2.1973345696
 H          6.3364098328       -3.4552645205        1.5051997671
 H          4.7407760289       -3.0164098221        2.1287914799
 H          6.7672146692       -1.1926082501        0.7732411342
 H          6.1541644237       -1.1154026337        2.4359478889
 O          3.9581008990       -0.1208535146        1.9910836741
 C          2.8407019843        0.6651929113        1.7760314015
 O          2.1599846214        0.8768041858        2.8008700991
 H         -1.0191302656        1.7912580241        1.6363901510
 C         -0.9938779477        1.1859633191        0.7396826179
 C          0.1538471538        1.1720755581       -0.0389838051
 C          0.1770806747        0.3739254249       -1.1787993514
 C         -0.9272797216       -0.3825753815       -1.5257918147
 C         -2.0701949719       -0.3663649487       -0.7449784522
 C         -2.1022152596        0.4214516066        0.3972601081
 N         -3.2541444738        0.4268847278        1.2022719688
 S         -4.7327394307        0.7383336675        0.4677305047
 O         -4.5687477694        1.5593011434       -0.7092935545
 O         -5.5694405848        1.2761595785        1.5177877159
 C         -5.3367288375       -0.8727763317        0.0116774904
 C         -5.6374116037       -1.1464552053       -1.3082180998
 C         -6.1146354417       -2.4051327821       -1.6395566699
 C         -6.2828831545       -3.3617394017       -0.6501848567
 C         -5.9791837119       -3.0697470838        0.6713953000
 C         -5.5024227481       -1.8133417151        1.0093645601
 H         -5.2596394433       -1.5451860402        2.0241101870
 H         -6.1122093936       -3.8161392234        1.4379209158
 H         -6.6537397778       -4.3406017625       -0.9103188623
 H         -6.3523218525       -2.6337195785       -2.6660787112
 H         -5.4873221382       -0.3725043935       -2.0441235205
 H         -3.1555243301        0.9658687387        2.0505599173
 H         -2.9312878970       -0.9573050430       -1.0110934065
 H         -0.8976821528       -0.9949209773       -2.4143675681
 H          1.0675590661        0.3601458239       -1.7887976884
 C          1.3427622757        2.0092340974        0.3568085657
 H          1.1538567173        2.3890927701        1.3735963582
 C          1.5505881749        3.2228043557       -0.5399032572
 C          0.8705013329        3.4202920582       -1.8577683805
 C          0.4577956513        4.2421955220       -0.6763340949
 H          0.7172768982        5.2897447463       -0.6512032764
 H         -0.4949625530        4.0128765960       -0.2211401539
 H          1.4398529082        3.8888522564       -2.6458393923
 H          0.1909432228        2.6592591724       -2.2069391593
 H          2.5621868191        3.6084458171       -0.4641725399
 O          3.2533753794        1.2416090947       -1.7813663112
