  62
        -98.94143801
 C          2.3768125998        1.2396514552        0.1412775048
 C          3.2932357172        0.5031981826        0.9338190756
 C          3.9794715073       -0.6133538411        0.2712013152
 C          3.6880294058       -0.8930974654       -1.0119114942
 C          4.2620533038       -2.0394104378       -1.7921009448
 C          3.3771490783       -3.2881033619       -1.6718469786
 C          2.9926910998       -3.6370690208       -0.2337733257
 H          2.3435413929       -2.8512473027        0.1613390679
 H          2.3962045315       -4.5515713614       -0.2694437991
 C          4.1852343794       -3.8380376459        0.7122248331
 H          4.0080592296       -4.7337463310        1.3111638529
 H          5.0920264504       -4.0102207462        0.1315200934
 C          4.4212612779       -2.6865178160        1.6914158929
 H          5.1360036725       -3.0240189733        2.4465357686
 H          3.4878030994       -2.4490573442        2.2084515576
 C          4.9767476602       -1.3934601479        1.0810728747
 H          5.8635421657       -1.6192376139        0.4856914238
 H          5.2722450440       -0.7382930069        1.9057532771
 H          3.9041212753       -4.1304001937       -2.1237619097
 H          2.4577281324       -3.1182977179       -2.2377739856
 H          4.3197623824       -1.7466268589       -2.8417511797
 H          5.2647454091       -2.2548934924       -1.4280544551
 O          2.7850140772       -0.1844122290       -1.7341270228
 C          2.0893002316        0.8834406054       -1.1782570927
 O          1.2731819864        1.4086945214       -1.9563005523
 O          3.5195288633        0.7620876421        2.1467228960
 C          1.6198659213        2.3730926100        0.8130813172
 C          0.1428319395        2.1995455487        0.5643894985
 C         -0.6468528042        3.1222869765       -0.1067427895
 C         -1.9876471558        2.8613594727       -0.3318705814
 C         -2.5680601320        1.6854930230        0.1064244959
 C         -1.7864955940        0.7548132841        0.7787539864
 C         -0.4474347291        1.0221636608        1.0091198676
 H          0.1642574062        0.2913083714        1.5261973979
 N         -2.3691957069       -0.4481603321        1.2287586536
 S         -3.0586242655       -1.4360225841        0.0523519709
 O         -3.0286719060       -2.7683492036        0.6178974164
 O         -2.4141751225       -1.2682496310       -1.2299365169
 C         -4.7465699118       -0.8769747598       -0.0267246666
 C         -5.5136613558       -0.9591981400        1.1190012461
 C         -6.8284426806       -0.5238400011        1.0757925060
 C         -7.3509932031       -0.0191258622       -0.1058368507
 C         -6.5688609642        0.0522742934       -1.2485613462
 C         -5.2522325338       -0.3804059463       -1.2119584428
 H         -4.6030302002       -0.3381037863       -2.0722242090
 H         -6.9766490495        0.4439577267       -2.1665588617
 H         -8.3741900006        0.3205108876       -0.1368844253
 H         -7.4401093717       -0.5784318300        1.9618307969
 H         -5.0691817544       -1.3628433998        2.0132561160
 H         -1.7438912614       -0.9983554551        1.8012393943
 H         -3.6101501253        1.4778129459       -0.0739701472
 H         -2.5886308265        3.5833602873       -0.8633281210
 H         -0.2057115090        4.0316127412       -0.4801787808
 H          1.8013982336        2.2156137692        1.8899303344
 C          2.1357833748        3.7669661720        0.4934047383
 C          3.5770072157        3.9915083854        0.1484467925
 C          2.5174174346        4.1959340578       -0.8903489014
 H          2.2875028149        5.2076036694       -1.1916737634
 H          2.4229711878        3.4723488922       -1.6841676751
 H          4.0747428776        4.8581445649        0.5568590695
 H          4.2117834137        3.1209778186        0.0657879858
 H          1.6714504227        4.5197262323        1.1232788006
