  62
        -98.94337768
 C         -1.9715063311       -0.8819406935       -0.4963940529
 C         -0.8982276916       -1.3096640005       -1.3120253208
 C         -0.1204176318       -2.4536710297       -0.8205004769
 C         -0.4671354178       -3.0289227456        0.3446311712
 C          0.2941065663       -4.1246013377        1.0346421039
 C          1.5084588373       -3.5216791284        1.7712001241
 C          2.8653291547       -3.9626180235        1.2200398501
 H          3.6203584042       -3.3117721964        1.6669138090
 H          3.0691488787       -4.9837747662        1.5507602530
 C          3.0122240311       -3.9231754407       -0.3043075886
 H          4.0803560044       -3.9853668325       -0.5230001668
 H          2.5519180675       -4.8118285799       -0.7393617130
 C          2.4377939303       -2.6797595738       -0.9955706614
 H          3.1269643928       -2.3784710017       -1.7875637914
 H          2.3767317669       -1.8490027255       -0.2901744666
 C          1.0563066047       -2.8955699505       -1.6453635581
 H          0.9998182936       -2.3039403176       -2.5639773078
 H          0.9389949422       -3.9464374245       -1.9233759751
 H          1.4327654702       -2.4320222455        1.7268830029
 H          1.4648847136       -3.7930239980        2.8276647409
 H         -0.3844523281       -4.5961853365        1.7461260508
 H          0.6144772447       -4.8693957247        0.3093901455
 O         -1.5269827005       -2.6147536247        1.0844025531
 C         -2.2703353392       -1.5034714024        0.7153631318
 O         -3.1601523362       -1.1921796396        1.5307669759
 H         -0.2722170490        1.1319435659       -0.2351281866
 C         -0.9886190281        1.6445406378        0.3862566335
 C         -2.3449222569        1.4268093475        0.1719719181
 C         -3.2600277909        2.1076877272        0.9612959208
 C         -2.8158502318        2.9467185745        1.9703782651
 C         -1.4663974166        3.1023841480        2.2264080544
 C         -0.5406855009        2.4375942925        1.4268418194
 N          0.8351485907        2.5668583183        1.6530146826
 S          1.9337335072        1.3713865914        1.2398748152
 O          1.3483935063        0.0516871666        1.2427467212
 O          3.0336626186        1.5767722132        2.1603591851
 C          2.4666208865        1.8598221315       -0.3875700702
 C          2.1265890263        1.1303224450       -1.5075274406
 C          2.5554609902        1.5717486816       -2.7503743369
 C          3.3142644681        2.7263963099       -2.8524428099
 C          3.6529919869        3.4468743739       -1.7162420556
 C          3.2261930341        3.0118191689       -0.4731588293
 H          3.4750980839        3.5341298622        0.4355529830
 H          4.2452807625        4.3440224300       -1.7971743041
 H          3.6432854522        3.0649718192       -3.8222655076
 H          2.2819890225        1.0077702059       -3.6278727285
 H          1.5285134498        0.2377711616       -1.4120121607
 H          1.0893520669        3.0409540072        2.5062198326
 H         -1.1278387863        3.7249785313        3.0405624761
 H         -3.5348774815        3.4667053438        2.5854027809
 H         -4.3166990642        1.9663152656        0.8048259550
 C         -2.7102999509        0.3948646463       -0.8682074031
 H         -2.2900688036        0.7082768252       -1.8348087059
 C         -4.1965350820        0.1694840603       -1.0264773951
 C         -5.0084999923        1.1128681204       -1.8617155678
 C         -4.7276574335       -0.2734595523       -2.3557238792
 H         -5.5349137851       -0.9900612240       -2.3739533251
 H         -4.0161870876       -0.3975273694       -3.1589216180
 H         -6.0125344796        1.3493573499       -1.5437472520
 H         -4.4898299677        1.9335640976       -2.3334974984
 H         -4.6525910354       -0.2547356919       -0.1396112530
 O         -0.5902334560       -0.7445199412       -2.3978837404
