  62
        -98.94032501
 C          2.3593970567        0.0449474874        0.1961359597
 C          3.4436289026        0.2334988150        1.0858078119
 C          4.7255745544       -0.3489144189        0.6692245086
 C          4.7941211108       -1.0208001951       -0.4949394966
 C          6.0487416817       -1.6126096035       -1.0678184842
 C          6.7692934178       -0.6105894112       -1.9810272774
 C          6.9535238651        0.7732837954       -1.3581658543
 H          7.4963040673        1.3855530235       -2.0815625383
 H          5.9732166694        1.2348730047       -1.2186948712
 C          7.7077281629        0.7728672138       -0.0211585542
 H          8.4457961815        1.5776008349       -0.0349724727
 H          8.2524477504       -0.1645214257        0.0967253969
 C          6.8226673045        1.0014433858        1.2053443265
 H          6.2058370528        1.8906002218        1.0520521887
 H          7.4722298028        1.1978921070        2.0624741848
 C          5.9010010398       -0.1634992462        1.5872919238
 H          6.4827857708       -1.0845057695        1.6601724061
 H          5.4788905859        0.0561606968        2.5724023440
 H          7.7438042845       -1.0247074821       -2.2459954680
 H          6.1866445507       -0.4976542387       -2.8981554993
 H          6.7052528490       -1.9156895688       -0.2545013780
 H          5.7775972146       -2.4932806999       -1.6522874507
 O          3.7257285438       -1.1982588515       -1.3141137678
 C          2.4835807576       -0.6688831240       -0.9956112240
 O          1.5942198373       -0.9021959741       -1.8357745745
 O          3.3417268844        0.8543686598        2.1787182807
 C          1.0096768117        0.6356311253        0.5536918183
 C         -0.0482604347       -0.4359020652        0.6518535603
 C          0.2479294395       -1.6317257764        1.3018498109
 C         -0.7072873127       -2.6203294592        1.4341529429
 C         -1.9878445240       -2.4302010844        0.9448758159
 C         -2.2964781516       -1.2387569772        0.3011994684
 C         -1.3280314661       -0.2549395907        0.1524414673
 H         -1.5988184897        0.6569303070       -0.3530002447
 N         -3.5826580865       -1.0101517883       -0.2136794403
 S         -4.2130856758        0.5528409705       -0.0930125171
 O         -3.7935861525        1.3174528150       -1.2403011437
 O         -3.8962224045        1.1135963978        1.2007635579
 C         -5.9606666101        0.2109488032       -0.2023784461
 C         -6.6833974854        0.0293358477        0.9620140621
 C         -8.0347471380       -0.2651951810        0.8734893260
 C         -8.6369782197       -0.3751531362       -0.3709713539
 C         -7.8990531642       -0.1891992710       -1.5305615994
 C         -6.5474104234        0.1062345813       -1.4492668803
 H         -5.9354914779        0.2673079038       -2.3215486955
 H         -8.3714200620       -0.2722707433       -2.4960625102
 H         -9.6888914559       -0.6039429612       -0.4373562799
 H         -8.6118236941       -0.4064390396        1.7731122836
 H         -6.1756818726        0.1352471693        1.9073164240
 H         -4.2524620364       -1.7101588103        0.0744841178
 H         -2.7371645030       -3.1992352236        1.0556577723
 H         -0.4570774899       -3.5440849439        1.9341616368
 H          1.2430577327       -1.7762963186        1.7005951628
 H          1.1371835961        1.0717998627        1.5570123490
 C          0.6495700241        1.7457727199       -0.4117808970
 C         -0.2072077003        2.8912804781        0.0346312362
 C          1.2536365357        3.1037732778       -0.2222591043
 H          1.5484869008        3.6644757776       -1.0965127562
 H          1.9066617224        3.2405415198        0.6274709870
 H         -0.9236551071        3.2996684149       -0.6630546583
 H         -0.5523345798        2.8884853116        1.0580458489
 H          0.5301037138        1.3878599883       -1.4290409539
