  62
        -98.94078581
 C         -1.7193960122       -0.3004115597        0.5464680816
 C         -2.9319004968       -0.3962384057        1.2760817373
 C         -4.1371675324       -0.6891131205        0.4931253166
 C         -4.0444424598       -0.8389478760       -0.8404442594
 C         -5.1773781262       -1.1626060956       -1.7762075419
 C         -5.9891988202        0.0621372042       -2.2195694493
 C         -6.8967077795        0.6646936998       -1.1462626589
 H         -7.5616769247        1.3703235507       -1.6482999400
 H         -7.5200897566       -0.1198980379       -0.7162224163
 C         -6.1495845297        1.4028834795       -0.0266262259
 H         -5.1299986076        1.6220224663       -0.3523730458
 H         -6.6362568935        2.3618390562        0.1655845233
 C         -6.0934121660        0.6494223163        1.3024215487
 H         -5.5112939831        1.2451904009        2.0103143590
 H         -7.1029007485        0.5408842942        1.7051051061
 C         -5.4504876100       -0.7408617777        1.2136902680
 H         -6.1280758935       -1.4379886097        0.7211198812
 H         -5.2597334047       -1.0953003557        2.2296908699
 H         -5.2980890226        0.8260612323       -2.5833986417
 H         -6.6139587856       -0.2481536862       -3.0602979810
 H         -5.8411369152       -1.8913839306       -1.3101401787
 H         -4.7285186118       -1.6165915489       -2.6622573956
 O         -2.8665977088       -0.7235856059       -1.5067912849
 C         -1.6810130327       -0.4267002188       -0.8433089226
 O         -0.6998224569       -0.3113683988       -1.5996176094
 O         -3.0030798595       -0.2406845224        2.5243740995
 C         -0.4562889547        0.0249116231        1.3229353799
 C          0.2981124332        1.1426734846        0.6493038367
 C         -0.3439032021        2.3655295787        0.4661446910
 C          0.2986954984        3.4155998543       -0.1581391664
 C          1.6060982640        3.2777361645       -0.5919421459
 C          2.2581469852        2.0661552577       -0.4073487250
 C          1.6020372396        1.0059981101        0.2033283467
 H          2.1185138848        0.0673395532        0.3106555123
 N          3.5799704703        1.8849614371       -0.8411242486
 S          4.6559373031        1.0613978089        0.1390561539
 O          4.3626261500        1.2661550356        1.5389371728
 O          5.9632282329        1.4996160364       -0.3033146049
 C          4.4590746103       -0.6562491058       -0.2837104665
 C          4.3409096392       -1.0090752757       -1.6131561774
 C          4.2369214300       -2.3511207374       -1.9416691204
 C          4.2609466805       -3.3127902596       -0.9430580466
 C          4.3837651525       -2.9422138434        0.3873479810
 C          4.4842025074       -1.6010492901        0.7229184450
 H          4.5698561970       -1.2677569882        1.7450479990
 H          4.4002428123       -3.6912106854        1.1633352321
 H          4.1793159335       -4.3567072610       -1.2020330549
 H          4.1363560823       -2.6429839467       -2.9746143968
 H          4.3246110853       -0.2365733766       -2.3634967913
 H          4.0051720894        2.6967496534       -1.2646910073
 H          2.1137026894        4.0989489885       -1.0752212466
 H         -0.2163299782        4.3538977521       -0.3012443401
 H         -1.3628167230        2.4765031016        0.8127770154
 H         -0.8231494904        0.4057697001        2.2916471017
 C          0.4137769747       -1.1826136967        1.6370901271
 C         -0.1899469014       -2.5434806162        1.8091737790
 C          0.6883900963       -2.2575289453        0.6300548359
 H          1.6760292064       -2.6941882705        0.6060147352
 H          0.2334765681       -2.1575779326       -0.3424656665
 H          0.1911685502       -3.1771845011        2.5956557822
 H         -1.2529964540       -2.6428330622        1.6443536556
 H          1.2265822209       -0.9278455106        2.3116204444
