  62
        -98.94411210
 C          2.0294133908        1.2816334700       -0.1061516784
 C          2.4182812908        0.2357354601       -0.9777217484
 C          3.8281122108       -0.1752982402       -0.8945421081
 C          4.6530943506        0.4554625195       -0.0396173578
 C          6.0944279005        0.1018133793        0.1823391825
 C          6.2461302800       -0.9172338609        1.3203741024
 C          5.3115850299       -2.1212332907        1.2005842820
 H          4.2783643099       -1.7856904706        1.3177328218
 H          5.5291688995       -2.7864124909        2.0390822119
 C          5.4441446101       -2.8995152206       -0.1159451981
 H          5.4605741598       -3.9679194806        0.1096157118
 H          6.3922369802       -2.6557153107       -0.5968058078
 C          4.3005552404       -2.6717945502       -1.1064431884
 H          3.3425652302       -2.8245594601       -0.6022274086
 H          4.3786271304       -3.4260318101       -1.8941689784
 C          4.2724267108       -1.2982405301       -1.7888281982
 H          3.5383558610       -1.3453662899       -2.5985960484
 H          5.2504666109       -1.0829972802       -2.2238522679
 H          6.0350106199       -0.4137136510        2.2665678024
 H          7.2823510600       -1.2595685811        1.3416075526
 H          6.5107820207       -0.3014587207       -0.7386262875
 H          6.6352349106        1.0119287191        0.4471923228
 O          4.2476462306        1.4690165495        0.7668899822
 C          2.9293482007        1.8901759597        0.7718272419
 O          2.6850255606        2.8039968497        1.5844849420
 H         -1.0478381391        0.0193037107       -1.4099033094
 C         -1.0480827294       -0.1459060394       -0.3444502694
 C         -0.2732199595        0.6556648703        0.4785189509
 C         -0.2756086799        0.4040428001        1.8477139409
 C         -1.0343414002       -0.6227583998        2.3776689505
 C         -1.8036317001       -1.4246360395        1.5519873802
 C         -1.7995147697       -1.1865941493        0.1849048603
 N         -2.5951409396       -1.9914257991       -0.6574773001
 S         -4.2388817197       -1.9563979888       -0.3308044905
 O         -4.5164689202       -2.7881311490        0.8128011293
 O         -4.8917642394       -2.3319600386       -1.5647465007
 C         -4.5627741595       -0.2471431788        0.0642812497
 C         -4.7272442098        0.1326725910        1.3805408997
 C         -4.8876434196        1.4775058410        1.6737454398
 C         -4.8746629192        2.4137601811        0.6517923600
 C         -4.7105640889        2.0158014213       -0.6662398601
 C         -4.5483951191        0.6731610313       -0.9650580002
 H         -4.4242300489        0.3256316014       -1.9782009402
 H         -4.7029548886        2.7471627414       -1.4583790800
 H         -4.9940276691        3.4606626111        0.8826450201
 H         -5.0161280298        1.7904663709        2.6973811298
 H         -4.7303951301       -0.6269931691        2.1446467696
 H         -2.4292850893       -1.8175500490       -1.6386319700
 H         -2.4059234303       -2.2284839395        1.9437831799
 H         -1.0270240505       -0.8026246599        3.4420168005
 H          0.3331230401        1.0250817200        2.4906518811
 C          0.5899477909        1.7693712003       -0.0608829187
 H          0.5752528608        2.5911497702        0.6671991114
 C          0.1301832013        2.2985985405       -1.4036249888
 C         -1.1497947185        3.0742846808       -1.4837457390
 C          0.1637567516        3.7736030506       -1.6604882385
 H          0.4375753120        4.1178562607       -2.6466265984
 H          0.5172242316        4.4111609404       -0.8634109584
 H         -1.6928338487        3.2326355607       -0.5643591791
 H         -1.7792936383        2.9406150610       -2.3501167092
 H          0.3825831314        1.6464592806       -2.2306411888
 O          1.6398768010       -0.3285250897       -1.7905824387
