  62
        -98.94415924
 C          2.2526839193       -0.8758710391       -0.3974317317
 C          2.4431248212       -0.0012670398        0.7000290022
 C          3.2823691795        1.1746304708        0.4357327851
 C          3.7726578854        1.3845123091       -0.7993929040
 C          4.6223916256        2.5497739187       -1.2288736979
 C          6.1178424039        2.3753098427       -0.9304062915
 C          6.5051570480        2.4914069161        0.5443734795
 H          7.5935703393        2.5678868493        0.5838090207
 H          6.0989224211        3.4169094152        0.9535626294
 C          6.0620598661        1.3043962567        1.4111124369
 H          6.8909162081        0.9907057005        2.0496004296
 H          5.8149628741        0.4561960230        0.7684489341
 C          4.8715479185        1.5959406142        2.3247653621
 H          4.6197113725        0.6785632074        2.8626687072
 H          5.1514025156        2.3522964143        3.0612889172
 C          3.6128687228        2.0734992439        1.5887176016
 H          2.7724913724        2.0385680254        2.2863022016
 H          3.7430852327        3.1002358199        1.2474259316
 H          6.6525768729        3.1487523982       -1.4865608640
 H          6.4401196135        1.4056451137       -1.3168907373
 H          4.4960343449        2.6451074676       -2.3096174758
 H          4.2596930791        3.4624149079       -0.7550214642
 O          3.5230306763        0.5441228933       -1.8402675429
 C          2.7754826755       -0.6095545573       -1.6617373136
 O          2.6376691770       -1.2978272575       -2.6950287193
 H         -0.1136961187       -0.2237657484       -1.2407176623
 C         -0.6329104798       -0.7558070300       -0.4517414609
 C          0.0216780644       -1.7885702604        0.2084412846
 C         -0.6629467482       -2.4744186554        1.2028884056
 C         -1.9574630160       -2.1156142506        1.5375455670
 C         -2.5964148913       -1.0734722283        0.8920708409
 C         -1.9268926808       -0.3901311925       -0.1149086175
 N         -2.5632352113        0.6777777884       -0.7724351500
 S         -4.0991499176        0.4198063424       -1.4007789497
 O         -4.2947039252       -0.9634415655       -1.7690943293
 O         -4.2416540060        1.3935625121       -2.4613586983
 C         -5.1878497668        0.8567424579       -0.0616683784
 C         -5.0570616645        2.1123080163        0.4986623171
 C         -5.9009910779        2.4724140078        1.5370047693
 C         -6.8577252090        1.5773420092        1.9925472941
 C         -6.9785577307        0.3218549022        1.4168955325
 C         -6.1367826567       -0.0451618191        0.3783183358
 H         -6.1896219026       -1.0121937212       -0.0959172926
 H         -7.7229844749       -0.3721982515        1.7725228697
 H         -7.5127785534        1.8603894538        2.8013030674
 H         -5.8095298927        3.4477450656        1.9872693569
 H         -4.3025279824        2.7781377789        0.1139560503
 H         -1.9770594987        1.1412812965       -1.4514527767
 H         -3.6011685906       -0.7866139678        1.1556641877
 H         -2.4746923305       -2.6533282985        2.3173828526
 H         -0.1818034460       -3.2883220165        1.7196766246
 C          1.4271099715       -2.1367404509       -0.2213293052
 H          1.3680614245       -2.6041786175       -1.2159259367
 C          2.1296706978       -3.0893035855        0.7241859318
 C          1.9646390399       -4.5703242215        0.5691164941
 C          3.2627067860       -3.9183303531        0.2013247200
 H          4.1212796537       -4.0789245924        0.8359602483
 H          3.5078522157       -3.8168516571       -0.8463618867
 H          1.9352538500       -5.1823455522        1.4579629541
 H          1.3311279042       -4.9223838258       -0.2311320457
 H          2.2261367888       -2.6841792245        1.7248250056
 O          1.9387944433       -0.1875720871        1.8367341555
