  62
        -98.93394715
 C         -1.5850018591       -0.5371495001       -0.6116070601
 C         -2.9327663990       -0.8873216803       -0.8811404200
 C         -3.9229281292       -0.5797368294        0.1638237196
 C         -3.5095021794       -0.0336260683        1.3195070491
 C         -4.3254592596        0.3198924228        2.5378469687
 C         -5.6874587995        0.9894513327        2.3097778178
 C         -5.7598364093        1.9140246915        1.0856726969
 H         -6.1680395793        2.8784646118        1.3934922360
 H         -4.7574737492        2.0950089912        0.6938726469
 C         -6.6517974391        1.3606218105       -0.0283272527
 H         -7.5574642792        0.9478910510        0.4214085575
 H         -6.9561062690        2.1854473900       -0.6771407635
 C         -6.0072256890        0.2987669197       -0.9185898516
 H         -6.7777303689       -0.0925856609       -1.5871315114
 H         -5.2412979288        0.7588491991       -1.5488248219
 C         -5.3543506391       -0.8793390896       -0.1775032404
 H         -5.3284716390       -1.7328440103       -0.8605091296
 H         -5.9279230293       -1.1578726488        0.7032407897
 H         -6.4590243796        0.2255992926        2.2237999083
 H         -5.9116395797        1.5610533235        3.2120540072
 H         -3.6849736497        0.9821586034        3.1256112582
 H         -4.4682666097       -0.5914539966        3.1261377695
 O         -2.1992475394        0.2536765519        1.5548832791
 C         -1.2058092093        0.0141713210        0.6126891195
 O         -0.0687245493        0.3426041913        0.9945704094
 O         -3.2954593888       -1.4477493313       -1.9494445295
 C         -0.5526437889       -0.8737693311       -1.6736214096
 C          0.5449491810       -1.7159207006       -1.0755690286
 C          0.2776062709       -3.0560241904       -0.8074285774
 C          1.2480253108       -3.8785958999       -0.2703467965
 C          2.5039441807       -3.3744329097        0.0170682833
 C          2.7782077808       -2.0355419399       -0.2301372079
 C          1.8034414810       -1.2130869404       -0.7803137488
 H          2.0255561310       -0.1742644406       -0.9611468097
 N          4.0555263508       -1.5038078897        0.0442647219
 S          4.1659801406       -0.3022656686        1.2211495308
 O          5.5484867505       -0.3654527783        1.6553524411
 O          3.1771655204       -0.4862643276        2.2568683308
 C          3.9267487108        1.2268791506        0.3465839193
 C          4.9418113510        1.6497488398       -0.4901984509
 C          4.8021003211        2.8564373492       -1.1553311720
 C          3.6599526911        3.6199345094       -0.9634147929
 C          2.6519305410        3.1794043502       -0.1198571727
 C          2.7788566508        1.9670711108        0.5422771884
 H          2.0021069207        1.5762254314        1.1808489987
 H          1.7614085710        3.7703840903        0.0255956266
 H          3.5523808813        4.5638499389       -1.4747253938
 H          5.5820910513        3.2006181285       -1.8152314222
 H          5.8192300710        1.0331877397       -0.5925154801
 H          4.7427556607       -2.2161943595        0.2531523227
 H          3.2678422506       -4.0112199893        0.4386222240
 H          1.0273343107       -4.9167070297       -0.0719308155
 H         -0.7071700391       -3.4450820705       -1.0281079572
 H         -1.1053271588       -1.5099358118       -2.3850004291
 C         -0.0344030787        0.3085087081       -2.4768111405
 C         -0.9759913386        1.3898628977       -2.9153726317
 C          0.1053154513        1.6927663986       -1.9241896018
 H          0.9488657313        2.2834269183       -2.2500406022
 H         -0.1678389789        1.8557400596       -0.8943696520
 H         -0.8853705684        1.7811723568       -3.9172474921
 H         -1.9940522786        1.3326345281       -2.5578116318
 H          0.7147807314       -0.0006379126       -3.1994827601
