  62
        -98.93233630
 C         -1.6312536404       -1.1703326210        0.7355214299
 C         -1.8132459106        0.2323083790        0.8189967498
 C         -3.1702028006        0.7581086288        0.5767548495
 C         -4.1567047604       -0.1140959513        0.2990129193
 C         -5.6013743204        0.1759483285       -0.0118402611
 C         -5.8048873801        0.7118522784       -1.4377291811
 C         -4.8054562902        1.7815759585       -1.8695970710
 H         -4.9920611299        2.0026602384       -2.9239213110
 H         -3.7943506001        1.3765374186       -1.7980075107
 C         -4.8833940605        3.0957118585       -1.0959492310
 H         -5.8899139405        3.5089531284       -1.1927114113
 H         -4.1910218605        3.7934564686       -1.5737478709
 C         -4.5285674208        3.0203020686        0.3909339190
 H         -5.3522857309        2.6139829985        0.9718228589
 H         -4.3790246010        4.0457068686        0.7412719690
 C         -3.2422300208        2.2610635588        0.7005782494
 H         -2.9441276011        2.4845237889        1.7318668894
 H         -2.4321052907        2.6545009089        0.0761867795
 H         -6.8201730901        1.1044626582       -1.5168175114
 H         -5.7133372798       -0.1284774317       -2.1303726411
 H         -6.0111024606        0.8635654784        0.7220908188
 H         -6.1380473503       -0.7706715816        0.0834345588
 O         -3.9357176802       -1.4567918613        0.2243186594
 C         -2.6858257002       -2.0250025611        0.4179511097
 O         -2.6717053100       -3.2624504411        0.2847258597
 O         -0.8721870107        1.0253459991        1.0910245000
 C         -0.2223109703       -1.6786914908        0.9785008102
 C          0.5546843000       -1.6722417807       -0.3125508796
 C          0.0862997503       -2.3341950709       -1.4435884497
 C          0.8147216206       -2.3026552708       -2.6185445795
 C          2.0101868305       -1.6086075906       -2.6915364093
 C          2.4781360001       -0.9299933205       -1.5712577192
 C          1.7477863999       -0.9712360206       -0.3910790094
 H          2.1125988696       -0.4492815505        0.4785467107
 N          3.6536083501       -0.1818153204       -1.6360855890
 S          4.4825950897        0.3734469898       -0.3050508188
 O          5.7163502597        0.8910287699       -0.8557594485
 O          4.6240392996       -0.6520351102        0.7023829313
 C          3.4912577194        1.7190971797        0.3068588809
 C          3.0905882894        2.6954297996       -0.5827140592
 C          2.3135106392        3.7440306995       -0.1190067794
 C          1.9536635089        3.7997043195        1.2185698205
 C          2.3701942888        2.8158212996        2.1005844106
 C          3.1472802391        1.7645016297        1.6426787308
 H          3.4831668990        0.9732975598        2.2952417209
 H          2.0849642286        2.8579806296        3.1395061906
 H          1.3405694487        4.6116939494        1.5763776603
 H          1.9851532892        4.5114375894       -0.8016430695
 H          3.3877560497        2.6201026896       -1.6156251291
 H          4.2038952203       -0.2615005703       -2.4759370988
 H          2.5741300407       -1.5847694106       -3.6113030691
 H          0.4480631108       -2.8252302009       -3.4894051796
 H         -0.8488354096       -2.8717514210       -1.3873064599
 H          0.2374402194       -0.9229375207        1.6359535103
 C         -0.1602353103       -3.0092359407        1.7129785903
 C          0.3541015500       -4.2743251807        1.1013004005
 C          1.1724704897       -3.5582580706        2.1309523506
 H          1.2699612095       -3.9944281305        3.1137112607
 H          2.0541763297       -3.0323083905        1.7927707008
 H         -0.1381285400       -5.1951557808        1.3747321504
 H          0.6918426102       -4.2506578707        0.0774119705
 H         -0.9744538805       -3.1204750508        2.4215859601
