  62
        -98.94012820
 C          2.5246559143        0.1198878836       -0.4769168417
 C          2.2014308914        0.7975689717        0.7216569109
 C          1.7021605382        2.1770349932        0.5820021369
 C          1.5251545687        2.6916751428       -0.6466019526
 C          1.0608436793        4.0712118705       -1.0481617110
 C         -0.0440488224        4.7338935311       -0.2193112458
 C         -1.1392528654        3.7817483911        0.2826032510
 H         -2.1154159943        4.1827031262        0.0021157097
 H         -1.0413351969        2.8022292914       -0.1910459121
 C         -1.1172353000        3.5980515516        1.8012161755
 H         -0.9458111759        4.5665117692        2.2774601629
 H         -2.0969787351        3.2385838876        2.1238023282
 C         -0.0805572826        2.5945716763        2.3006628408
 H         -0.1222511923        2.5734244474        3.3926777212
 H         -0.3453881040        1.5964050845        1.9423364984
 C          1.3673775706        2.8791305170        1.8672322578
 H          1.5578103950        3.9481714795        1.8021663595
 H          2.0348830022        2.4521188891        2.6209055968
 H          0.3985980889        5.2496463720        0.6317127172
 H         -0.4911299441        5.5010616599       -0.8544517020
 H          1.9369180486        4.7275332915       -1.0646587760
 H          0.7238447942        3.9628769850       -2.0825868314
 O          1.8164005759        1.9860276862       -1.7795491034
 C          2.3093559855        0.6957286941       -1.7259283156
 O          2.5220960973        0.1774543556       -2.8436835572
 O          2.3450493942        0.2860898162        1.8631368334
 C          3.0017824069       -1.3220406978       -0.4314069611
 C          1.9227581648       -2.1588612157        0.2135984427
 C          2.1504503771       -3.0744704899        1.2319860255
 C          1.0897129558       -3.7495422203        1.8125840207
 C         -0.2112532484       -3.5126418571        1.4091341472
 C         -0.4459625072       -2.6136332483        0.3741478481
 C          0.6201827725       -1.9719385058       -0.2313749119
 H          0.4270317608       -1.2798264020       -1.0398638887
 N         -1.7485065343       -2.3400462821       -0.0793718865
 S         -2.0582459483       -0.7555662341       -0.5882131640
 O         -1.7607096937       -0.6607636987       -1.9972272557
 O         -1.3950855381        0.1887666015        0.2780006944
 C         -3.8237595830       -0.6734109889       -0.3495467524
 C         -4.6482599466       -1.2960434897       -1.2678720209
 C         -6.0192235751       -1.2592602751       -1.0692036076
 C         -6.5398240777       -0.6043279199        0.0373932732
 C         -5.7000132248        0.0181132784        0.9485481586
 C         -4.3275133129       -0.0166383014        0.7568434230
 H         -3.6339126586        0.4569219065        1.4333230286
 H         -6.1070359201        0.5297441996        1.8057151756
 H         -7.6072632224       -0.5764742810        0.1889460110
 H         -6.6753739233       -1.7394338452       -1.7770093911
 H         -4.1975882340       -1.7825336865       -2.1172472711
 H         -2.4637099091       -2.6786098496        0.5501010783
 H         -1.0382399704       -4.0149926936        1.8874925257
 H          1.2784276679       -4.4535178525        2.6089224236
 H          3.1546485988       -3.2468624354        1.5830018219
 H          3.1052894070       -1.6407542449       -1.4796186412
 C          4.3481872040       -1.4277842434        0.2517252888
 C          5.2884679287       -2.5386389824       -0.1049941146
 C          5.5858549788       -1.1360692374       -0.5403717557
 H          6.3922415029       -0.6039316319       -0.0587119773
 H          5.4571584109       -0.8828370967       -1.5829710258
 H          5.8967209259       -2.9702347757        0.6753817135
 H          4.9664355208       -3.2434791752       -0.8566460741
 H          4.3195502522       -1.0864340047        1.2798307456
