  62
        -98.94038120
 C         -2.4656109125       -1.2485480605        0.0875415553
 C         -3.4138399501       -0.7357504837        1.0124482781
 C         -4.4597295518        0.1323892910        0.4632982053
 C         -4.4883590023        0.3837779367       -0.8576259137
 C         -5.5088067156        1.2210253856       -1.5797857707
 C         -5.2193321762        2.7279727613       -1.5462976091
 C         -5.4524424642        3.4053327226       -0.1952302898
 H         -5.4264724618        4.4829178394       -0.3688554910
 H         -6.4510819057        3.1580043308        0.1659752527
 C         -4.4123701918        3.0531382460        0.8776201855
 H         -3.5295191077        2.6197330140        0.4015986692
 H         -4.0869544381        3.9652946784        1.3826950648
 C         -4.9137045010        2.0926438499        1.9561288302
 H         -5.7111117592        2.5698250983        2.5299655350
 H         -4.0862739500        1.8819947349        2.6383729337
 C         -5.4347664090        0.7543121881        1.4166556413
 H         -6.4018161511        0.8936719962        0.9338476875
 H         -5.5578953745        0.0691651697        2.2588556205
 H         -5.8724370114        3.2008279322       -2.2834219660
 H         -4.1868813674        2.8925519579       -1.8635260192
 H         -5.5002331803        0.8915768355       -2.6210889622
 H         -6.4983277963        1.0302755308       -1.1632757872
 O         -3.5705637733       -0.1329698460       -1.7153669695
 C         -2.5294263874       -0.9411787507       -1.2718611822
 O         -1.7614284291       -1.3001457275       -2.1857674314
 O         -3.3917776512       -1.0063498476        2.2422094925
 C         -1.3958601762       -2.1646166049        0.6554541329
 C         -0.1166152552       -1.4260360606        0.9532742914
 C          0.5064504288       -1.5436358295        2.1899650500
 C          1.7024312140       -0.8935809864        2.4414998197
 C          2.3019146832       -0.1179233915        1.4654356398
 C          1.6851370988        0.0089856499        0.2277148020
 C          0.4839848482       -0.6379377048       -0.0191661270
 H          0.0165124485       -0.5465122882       -0.9891565768
 N          2.3005205189        0.7881120750       -0.7769530792
 S          3.7748942724        0.1857454075       -1.3307982279
 O          3.9426981870        0.7308624548       -2.6599444921
 O          3.8274201426       -1.2537599121       -1.2129601237
 C          4.9701943126        0.9288584685       -0.2407225425
 C          5.0625855535        2.3069106822       -0.2182932615
 C          5.9897767752        2.9010873822        0.6228485939
 C          6.8053347945        2.1117787995        1.4204412310
 C          6.7020293188        0.7295827015        1.3838458835
 C          5.7759426347        0.1286324913        0.5453131434
 H          5.6553044308       -0.9411315179        0.4861435578
 H          7.3370274965        0.1179249178        2.0043393184
 H          7.5260566972        2.5769780108        2.0742642655
 H          6.0734076085        3.9755034841        0.6539391148
 H          4.4132140433        2.8812443069       -0.8578410064
 H          1.6932008325        0.9397965104       -1.5712537182
 H          3.2343736754        0.3889812902        1.6531226874
 H          2.1741368020       -0.9935331282        3.4069121510
 H          0.0425555112       -2.1449737926        2.9581127594
 H         -1.8106681420       -2.5053683690        1.6173913409
 C         -1.1646448709       -3.4045279170       -0.2002611989
 C          0.0929884836       -3.6738860016       -0.9663674687
 C         -0.2181877997       -4.4728101378        0.2616600614
 H         -0.5077097923       -5.5065968554        0.1501261604
 H          0.3668399235       -4.2683263104        1.1456320351
 H         -0.0047818707       -4.1434944026       -1.9337233565
 H          0.8980819696       -2.9559977932       -0.9210715452
 H         -2.0836747484       -3.7432154258       -0.6689661913
