  62
        -98.94451700
 C         -1.4289355016       -0.9783740934       -0.0453902049
 C         -2.7179455670       -1.3620845461        0.3959465802
 C         -3.6446135023       -0.2641483401        0.7028407108
 C         -3.2189411647        1.0071863388        0.5867724931
 C         -4.0691501991        2.2207668038        0.8252059422
 C         -4.7477124535        2.6856503828       -0.4707548864
 C         -5.4562779214        1.5651174434       -1.2317611182
 H         -5.9268363695        2.0138726806       -2.1093305648
 H         -4.7107392046        0.8542878364       -1.5955773316
 C         -6.5147253250        0.8127456293       -0.4131751736
 H         -6.8002835730        1.4045260543        0.4572794623
 H         -7.4091912967        0.6879922243       -1.0272119291
 C         -6.0888226506       -0.5845259214        0.0416383861
 H         -6.9750478934       -1.1056323875        0.4136897433
 H         -5.7134400593       -1.1498375298       -0.8152340875
 C         -5.0310393383       -0.6321416760        1.1515824324
 H         -4.9670085679       -1.6655923963        1.5047081780
 H         -5.3462491954       -0.0035222192        1.9869423325
 H         -5.4653515254        3.4699637393       -0.2232176220
 H         -3.9862775628        3.1150843630       -1.1256860390
 H         -3.4278298025        3.0215471955        1.1965387994
 H         -4.8203043501        1.9906350568        1.5781830086
 O         -1.9641708898        1.3364690625        0.1889224124
 C         -1.0390569078        0.3576064190       -0.1481407214
 O          0.0637111091        0.8007770975       -0.5133015995
 O         -3.0751054345       -2.5636385297        0.5304964779
 C         -0.4165662018       -2.0602924526       -0.3815141364
 C          0.7427862119       -1.9399556498        0.5748820371
 C          0.5378162765       -2.2732593993        1.9122446323
 C          1.5537114168       -2.1390324075        2.8378340542
 C          2.7922109525       -1.6558812793        2.4515293355
 C          3.0054367397       -1.3183360909        1.1205222120
 C          1.9871439345       -1.4688912960        0.1883816345
 H          2.1827681750       -1.2017745239       -0.8357050411
 N          4.2556563550       -0.8402652268        0.7030340502
 S          4.4038149435        0.2981486060       -0.5055168045
 O          4.1416846420       -0.2986942165       -1.7915740892
 O          5.7467810956        0.8150518943       -0.3269207551
 C          3.2395703148        1.6079416684       -0.1728651919
 C          2.6736762336        2.2664325864       -1.2434295188
 C          1.8234889629        3.3326410856       -1.0046011158
 C          1.5511024436        3.7181554825        0.2970750409
 C          2.1268596524        3.0462222804        1.3628919778
 C          2.9846554096        1.9843344691        1.1295804575
 H          3.4400303113        1.4485961180        1.9468965644
 H          1.9047570497        3.3418441929        2.3762886070
 H          0.8777641058        4.5406558964        0.4822939319
 H          1.3664885762        3.8493254452       -1.8336402708
 H          2.8959587923        1.9224202415       -2.2410668675
 H          4.9281399340       -0.6888548605        1.4402217205
 H          3.5881685657       -1.5448814390        3.1722850194
 H          1.3812155691       -2.4055083321        3.8695952664
 H         -0.4352190140       -2.6360385357        2.2140008737
 H         -0.9288206779       -3.0129334294       -0.1858881525
 C         -0.0166478443       -2.0123535368       -1.8401684239
 C          0.6187702397       -3.2131097573       -2.4725286185
 C         -0.7816851505       -2.8252988170       -2.8390372082
 H         -0.9621957051       -2.4042222846       -3.8168155496
 H         -1.5937074913       -3.4343940707       -2.4692434522
 H          1.4060056630       -3.0575008993       -3.1946814194
 H          0.7578158200       -4.0866792396       -1.8535591703
 H          0.3263581747       -1.0337177108       -2.1562324238
