  62
        -98.93495043
 C         -0.8047204878       -1.8307765931       -0.1548065192
 C         -1.2044228651       -0.5866067469       -0.6958527280
 C         -2.4690319281       -0.0140117393       -0.1767955224
 C         -3.0842046130       -0.6137167663        0.8577894874
 C         -4.3484803363       -0.2105421232        1.5718589840
 C         -5.6186059159       -0.5440134330        0.7773638692
 C         -5.5754374534       -0.1253511266       -0.6889561753
 H         -6.5019942164       -0.4657714545       -1.1588795166
 H         -4.7523220932       -0.6437631924       -1.1834199821
 C         -5.4511175901        1.3776105698       -0.9308575971
 H         -6.2641214566        1.8920389462       -0.4142586043
 H         -5.5844779721        1.5420119747       -2.0031446715
 C         -4.1207533399        2.0169165940       -0.5196171368
 H         -4.0889840513        2.2200536371        0.5471144875
 H         -4.0577661415        2.9848090597       -1.0242657277
 C         -2.8863900177        1.2231835686       -0.9334145198
 H         -2.0132045367        1.8829436901       -0.9091629379
 H         -2.9870479155        0.9230366479       -1.9833092885
 H         -6.4678972908       -0.0675168644        1.2704600386
 H         -5.7706650602       -1.6256415507        0.8145636812
 H         -4.3206662671        0.8458283881        1.8203108468
 H         -4.3669781927       -0.7737288475        2.5076327923
 O         -2.6021168653       -1.7632491354        1.4156878287
 C         -1.5017574275       -2.4167467138        0.9050202458
 O         -1.2343227503       -3.4959084301        1.4721049666
 O         -0.5669985440        0.0414953834       -1.5799782289
 C          0.4045582674       -2.6148009398       -0.6381287454
 C          1.6346820631       -2.2463443178        0.1490683265
 C          2.4294276359       -3.2314898369        0.7237360738
 C          3.5552304030       -2.8912686386        1.4518735224
 C          3.9150470470       -1.5650425846        1.6061863876
 C          3.1243680786       -0.5721662502        1.0382775402
 C          1.9853639454       -0.9147450599        0.3241652228
 H          1.3753543251       -0.1409273645       -0.1157449637
 N          3.4498379143        0.7816994072        1.2003518697
 S          3.1994801229        1.8655907366       -0.0487026411
 O          3.3491795927        1.2332204147       -1.3373393097
 O          4.1246431526        2.9478132525        0.2245822847
 C          1.5534219029        2.5016240017        0.1831662531
 C          1.0177722604        3.2617485642       -0.8372222682
 C         -0.2121258764        3.8697574863       -0.6481289386
 C         -0.8860798518        3.7040128847        0.5526185223
 C         -0.3411694814        2.9262859063        1.5615515860
 C          0.8940614439        2.3234459098        1.3816430248
 H          1.3409850697        1.7142139840        2.1502509859
 H         -0.8721241521        2.7868788475        2.4896834006
 H         -1.8440062423        4.1779542091        0.6989345586
 H         -0.6422612047        4.4653624582       -1.4375914346
 H          1.5699399269        3.3565404144       -1.7585653722
 H          4.3155321761        0.9640589768        1.6863156139
 H          4.7973128516       -1.2953794067        2.1666080252
 H          4.1620965044       -3.6648028956        1.8973080754
 H          2.1498852713       -4.2683672926        0.6080025949
 H          0.1739937497       -3.6677110730       -0.4062430832
 C          0.6184917568       -2.5308990147       -2.1425716041
 C          1.6713479692       -1.6947716040       -2.7983772746
 C          1.8158022806       -3.1850770668       -2.7674420969
 H          1.6850690469       -3.7384478397       -3.6852199262
 H          2.5588907364       -3.5996506632       -2.1026557022
 H          1.4123033065       -1.2176224995       -3.7317325015
 H          2.3221567693       -1.0905949823       -2.1851983790
 H         -0.3194693460       -2.6213052219       -2.6824225826
