  62
        -98.94115767
 C         -2.1196765552       -0.8027885620       -0.3641296090
 C         -3.0553035023       -0.6024211750        0.6858473001
 C         -3.5889217207        0.7555833449        0.8414836343
 C         -3.1510604750        1.7280357020        0.0216961423
 C         -3.6359463923        3.1480794288        0.0355014491
 C         -4.8232440905        3.3407288003       -0.9184506846
 C         -5.9275993480        2.2977263211       -0.7471742911
 H         -6.7252466400        2.5507199073       -1.4488198873
 H         -5.5406830412        1.3187672146       -1.0389571810
 C         -6.5039263719        2.2108761709        0.6729306442
 H         -6.2515060879        3.1130085004        1.2312591158
 H         -7.5928792164        2.1643596210        0.6067074980
 C         -6.0536924322        0.9825656526        1.4660037103
 H         -6.2185827913        0.0812646790        0.8704064419
 H         -6.6809240865        0.9048874184        2.3579650470
 C         -4.5931150747        0.9887636168        1.9350600897
 H         -4.3782763078        1.9217506323        2.4604456394
 H         -4.4655239801        0.1616410582        2.6395371051
 H         -5.2344129156        4.3391724305       -0.7593250868
 H         -4.4545048572        3.2840694847       -1.9451721360
 H         -3.9231549003        3.4167993569        1.0503364780
 H         -2.8149974194        3.7934699854       -0.2818786745
 O         -2.2381650026        1.5084038305       -0.9555672146
 C         -1.6987107594        0.2497655471       -1.1768807440
 O         -0.8776147591        0.2275980238       -2.1170469344
 H          0.7358187650       -0.9552585696       -1.1800072774
 C          0.8609071671       -1.5882188897       -0.3137028634
 C         -0.2219763948       -2.3169062551        0.1579084268
 C         -0.0477790421       -3.1041934420        1.2898111657
 C          1.1776738415       -3.1560718948        1.9318167383
 C          2.2515612952       -2.4196705784        1.4642075779
 C          2.0835199573       -1.6252719699        0.3381664370
 N          3.1677717518       -0.8413060962       -0.1342232155
 S          3.5402011718        0.4650458328        0.8771369186
 O          3.9087365453       -0.0520930834        2.1700688961
 O          2.4633760031        1.4344272239        0.8624938991
 C          4.9755725538        1.1284142399        0.0559089256
 C          6.2182588574        0.6052898657        0.3567270330
 C          7.3303951390        1.0983889918       -0.3067871302
 C          7.1816802049        2.0983811327       -1.2562108894
 C          5.9274530813        2.6132178248       -1.5476060389
 C          4.8110743130        2.1239971033       -0.8876630264
 H          3.8182571712        2.5019248165       -1.0755029577
 H          5.8138804455        3.3921604900       -2.2844449600
 H          8.0483473913        2.4815128891       -1.7713342946
 H          8.3075941755        0.7027482805       -0.0817381268
 H          6.2850615514       -0.1648385880        1.1069890798
 H          2.9449029400       -0.4541584721       -1.0442193252
 H          3.2025986997       -2.4291401559        1.9701808735
 H          1.2962390520       -3.7715245520        2.8107522488
 H         -0.8884472238       -3.6603146344        1.6788897519
 C         -1.5682723397       -2.2119901472       -0.5185938351
 H         -2.2681101969       -2.8549219812        0.0320026626
 C         -1.5065485814       -2.6901308400       -1.9554048368
 C         -1.4553232000       -4.1628308592       -2.2266199976
 C         -2.6943995768       -3.3839038249       -2.5486372415
 H         -2.9346795055       -3.1963993000       -3.5843383437
 H         -3.5607426232       -3.5192696817       -1.9175979943
 H         -1.4819134899       -4.8278362921       -1.3767470334
 H         -0.8420616797       -4.5145237554       -3.0417723563
 H         -0.9391183293       -2.0370086062       -2.6050910812
 O         -3.4312548524       -1.5266152359        1.4556647394
