  62
        -98.94200615
 C         -1.0237113860       -1.3235869835        0.5021308180
 C         -1.5168623624       -0.6568112028       -0.6424410369
 C         -2.3929918381        0.5053884267       -0.3976738419
 C         -2.5899015044        0.9308945340        0.8639968755
 C         -3.3649486921        2.1155000821        1.4032937956
 C         -4.3929643117        2.8352958763        0.5333661730
 C         -5.6204405644        2.0006938854        0.1671989716
 H         -6.2170296253        1.8476308712        1.0701037450
 H         -6.2257802079        2.5757691491       -0.5367968745
 C         -5.3341432601        0.6250825243       -0.4309980532
 H         -4.8147717840        0.0070425248        0.3044991827
 H         -6.2947844139        0.1431876694       -0.6322231173
 C         -4.5347904898        0.6277066444       -1.7328041335
 H         -5.0338858341        1.2613553019       -2.4683230534
 H         -4.5324121095       -0.3951234530       -2.1187138720
 C         -3.0700155057        1.0819988197       -1.6083956833
 H         -2.5198577178        0.7027725647       -2.4742869035
 H         -3.0001011646        2.1667013307       -1.6235811161
 H         -4.7403710131        3.6949639960        1.1128834868
 H         -3.9210037037        3.2313991617       -0.3609033930
 H         -3.8553017086        1.7587449095        2.3146371131
 H         -2.6121387255        2.8440297258        1.7262395069
 O         -2.0035002365        0.3122163828        1.9331537028
 C         -1.2586427873       -0.8454639243        1.7897185168
 O         -0.8661283284       -1.3415544696        2.8658236593
 H          1.6696858766       -0.9174241434        1.2015080916
 C          1.9549707155       -1.3731081973        0.2639620555
 C          1.0997709165       -2.2883855394       -0.3397669668
 C          1.4911976500       -2.8813698444       -1.5323753504
 C          2.7079203141       -2.5564368404       -2.1068573798
 C          3.5545328377       -1.6439567449       -1.5061533459
 C          3.1763024416       -1.0508762538       -0.3056735567
 N          4.0402281300       -0.1547926212        0.3444817618
 S          3.4669511003        1.2165401438        1.1003501991
 O          4.6523612999        2.0193879226        1.3126251217
 O          2.7155799248        0.8714844257        2.2797841288
 C          2.4221665721        2.0170200556       -0.1008184832
 C          3.0298561497        2.6391863437       -1.1747193324
 C          2.2391155942        3.2554343847       -2.1297655636
 C          0.8591637132        3.2428520729       -1.9928642027
 C          0.2655041781        2.6195368051       -0.9070620042
 C          1.0514881028        1.9925189419        0.0466750522
 H          0.6211382001        1.4921915621        0.9011744910
 H         -0.8061318325        2.6061573865       -0.7960278735
 H          0.2400165499        3.7231951602       -2.7337411398
 H          2.6978199506        3.7442874420       -2.9740239435
 H          4.1061676353        2.6465714860       -1.2316142718
 H          4.8965811511        0.0376729789       -0.1545180126
 H          4.5054169024       -1.3964873773       -1.9524710377
 H          2.9998289253       -3.0206019369       -3.0364566162
 H          0.8435526447       -3.5938515730       -2.0148939429
 C         -0.2032530370       -2.5933186806        0.3589163467
 H          0.0380636549       -2.9099585181        1.3844051765
 C         -1.0195608157       -3.6807431786       -0.3075667346
 C         -0.6664840866       -5.1200691054       -0.0883908520
 C         -1.9010397968       -4.5470887852        0.5387232832
 H         -2.8638067048       -4.8412111287        0.1483630614
 H         -1.8998374864       -4.3674066658        1.6044450199
 H          0.1743399258       -5.3351442629        0.5537170777
 H         -0.7838006941       -5.8119584294       -0.9085256608
 H         -1.3967468998       -3.3875459954       -1.2799664091
 O         -1.2538838892       -1.0127051898       -1.8194870529
