  62
        -98.93786632
 C          0.8530866407        1.5410985286        0.2065722287
 C          1.3251802368        0.3488902263        0.8067170004
 C          2.4506323650       -0.3141972156        0.1323618069
 C          2.9202941794        0.2018739785       -1.0179400932
 C          4.1061393889       -0.3134350803       -1.7830524342
 C          5.4109237933        0.1396096124       -1.0967499488
 C          6.2504007634       -1.0014236355       -0.5215787845
 H          6.7585617421       -1.5153612795       -1.3402318585
 H          7.0186986112       -0.5538197220        0.1125896198
 C          5.4844850131       -2.0523482188        0.2880153012
 H          6.2277550811       -2.6275017926        0.8441806848
 H          4.9940471266       -2.7513035433       -0.3907971644
 C          4.4412232016       -1.5115181032        1.2744884428
 H          4.4836287839       -2.1198638845        2.1801378028
 H          4.6829212628       -0.4897992939        1.5680458907
 C          2.9889695545       -1.5675733903        0.7635637932
 H          2.8805940636       -2.3996861982        0.0639843289
 H          2.3247959011       -1.7591680592        1.6106636747
 H          5.1531792908        0.8408450645       -0.3002514819
 H          6.0259158548        0.6897703004       -1.8106004933
 H          4.0624283806       -1.3983627633       -1.8438118853
 H          4.0454468441        0.0967741610       -2.7911728883
 O          2.4064835076        1.3210409577       -1.5901954413
 C          1.3644122035        2.0204114140       -0.9993237723
 O          0.9998058947        3.0255922422       -1.6370841686
 H         -1.5507460254        0.0226959928        0.2747884043
 C         -2.0200158163        0.8571181515       -0.2269785470
 C         -1.5166833703        2.1378181189       -0.0281962235
 C         -2.1256743075        3.2026017830       -0.6778160825
 C         -3.2067527453        2.9820069008       -1.5138475993
 C         -3.7116013199        1.7086055256       -1.7003056004
 C         -3.1132661831        0.6361074959       -1.0472630845
 N         -3.5885021172       -0.6730405015       -1.2189451843
 S         -3.6520574621       -1.7002938368        0.1018202398
 O         -4.6299941322       -2.7018972668       -0.2718223499
 O         -3.9286774799       -0.9786185190        1.3221282850
 C         -2.0552356296       -2.4802490701        0.1751201481
 C         -1.4556736654       -2.6752834010        1.4027202942
 C         -0.2536848377       -3.3612452936        1.4603449464
 C          0.3243539560       -3.8371166034        0.2945229035
 C         -0.2850236168       -3.6234536036       -0.9325269092
 C         -1.4900838260       -2.9433534062       -0.9963941959
 H         -1.9964266953       -2.7647589592       -1.9305476357
 H          0.1727456064       -3.9882093880       -1.8382034864
 H          1.2557894022       -4.3788534677        0.3450532261
 H          0.2259827453       -3.5160733317        2.4132714633
 H         -1.9320478955       -2.2785561589        2.2850967221
 H         -4.4157797000       -0.7531267878       -1.7925552034
 H         -4.5592855796        1.5407392852       -2.3473823040
 H         -3.6670811350        3.8158348710       -2.0220687290
 H         -1.7465577155        4.2016952299       -0.5419987438
 C         -0.3057342212        2.2747069085        0.8607798591
 H         -0.5109531644        1.7259997612        1.7914465914
 C          0.0537435994        3.7031833842        1.2053441242
 C         -0.7512559797        4.4403169094        2.2323732085
 C          0.6462633538        4.0019919798        2.5485379425
 H          1.4200491948        4.7520466702        2.6149550200
 H          0.7809560225        3.1744054897        3.2297223492
 H         -0.9379995341        5.4931054366        2.0849372364
 H         -1.5676033236        3.9095288004        2.6990218714
 H          0.4356113061        4.2604380318        0.3582028730
 O          0.8293576853       -0.1368502873        1.8590141584
