  62
        -98.93493466
 C          2.1846645481        1.0660136835        0.5942330592
 C          2.1970478638        0.1548150588       -0.4888226489
 C          3.0920751256       -1.0122510286       -0.3507482060
 C          3.7788722729       -1.1848617086        0.7909396683
 C          4.7766475781       -2.2632335287        1.1114327193
 C          6.2050882544       -1.7967009529        0.7824882789
 C          6.6492935713       -2.0472835480       -0.6580456112
 H          7.6171268471       -1.5580482894       -0.7891571925
 H          6.8009199454       -3.1186304020       -0.8051679025
 C          5.6906829089       -1.5369290002       -1.7370065307
 H          5.3276157615       -0.5435807861       -1.4672374209
 H          6.2559559667       -1.4328142404       -2.6650447026
 C          4.5020554392       -2.4783635991       -1.9831633838
 H          4.6965565628       -3.4338081987       -1.4961893929
 H          4.4209475475       -2.6873800875       -3.0518624636
 C          3.1353785191       -1.9394702258       -1.5347819016
 H          2.6826571584       -1.3680100910       -2.3515348419
 H          2.4626335500       -2.7824696894       -1.3413075476
 H          6.2687146493       -0.7288963890        1.0074592286
 H          6.9027058840       -2.3117471903        1.4459261405
 H          4.7074362601       -2.4406187366        2.1868356950
 H          4.5318799139       -3.1831991726        0.5888702133
 O          3.6786373294       -0.3222368940        1.8403072663
 C          2.8895599168        0.8110195139        1.7725500149
 O          2.8865268160        1.4960234569        2.8152820113
 O          1.5093009778        0.2981958350       -1.5323572773
 C          1.3302404779        2.3224279034        0.5752309478
 C         -0.0609301956        1.9913085954        0.0922964280
 C         -0.6585958394        2.5786115981       -1.0141812724
 C         -1.9379846013        2.2115812627       -1.3938598556
 C         -2.6487516542        1.2638254796       -0.6811450603
 C         -2.0578171031        0.6649393750        0.4239258150
 C         -0.7781779639        1.0372873169        0.8043044077
 H         -0.3143173809        0.5664423535        1.6637753708
 N         -2.7739699359       -0.2896735793        1.1672508369
 S         -3.5624543451       -1.5269748561        0.3510194817
 O         -3.6761439706       -2.5968265531        1.3194453093
 O         -2.9083282253       -1.8552360067       -0.8940021659
 C         -5.1822353381       -0.8563632956        0.0371113191
 C         -5.6774468342       -0.8257525155       -1.2517707261
 C         -6.9419046319       -0.3014831255       -1.4715178729
 C         -7.6848814145        0.1788787572       -0.4040879607
 C         -7.1746113877        0.1371933464        0.8849888387
 C         -5.9117950549       -0.3862494853        1.1115219527
 H         -5.4802531636       -0.4400217512        2.0970144606
 H         -7.7554361639        0.5112008503        1.7126552299
 H         -8.6676093590        0.5879220307       -0.5778408627
 H         -7.3403597898       -0.2693086151       -2.4728613922
 H         -5.0606984535       -1.2052971680       -2.0510889805
 H         -2.2605630341       -0.6573544809        1.9552007387
 H         -3.6427385542        0.9729108349       -0.9788497853
 H         -2.3882316817        2.6696507792       -2.2613311841
 H         -0.1134173366        3.3028324100       -1.5964585716
 H          1.2508014965        2.6228879713        1.6335003018
 C          1.9629168345        3.4959771962       -0.1577224461
 C          3.4527207460        3.6339265024       -0.2496343392
 C          2.6497474364        3.3442161059       -1.4802739016
 H          2.5331550841        4.1317931535       -2.2104530556
 H          2.6964288871        2.3559211359       -1.9087384424
 H          3.8850050096        4.6164127948       -0.1333512704
 H          4.0551880092        2.8406150227        0.1692485523
 H          1.4071542630        4.4151083986        0.0000055066
