  62
        -98.94284749
 C         -2.3326667202       -0.9236359103        0.4263607596
 C         -2.5011184503        0.1019231102       -0.5352198998
 C         -3.4382021903        1.1768414300       -0.1726163893
 C         -4.0505585503        1.1519149294        1.0243335208
 C         -5.0569743603        2.1586562191        1.4986767713
 C         -6.4854792703        1.7296350992        1.1356313512
 C         -6.6528983003        1.3131244500       -0.3256917190
 H         -6.0770699903        0.4022739601       -0.5051984295
 H         -7.7054068503        1.0618595600       -0.4736300391
 C         -6.2354499004        2.3840513805       -1.3431441485
 H         -6.9975511105        2.4419062209       -2.1231767784
 H         -6.1939379904        3.3600142002       -0.8581989380
 C         -4.9030198704        2.1093865909       -2.0427565587
 H         -4.8122214305        2.8013362213       -2.8844512384
 H         -4.9060863704        1.0959219711       -2.4520533492
 C         -3.6480644104        2.2758063205       -1.1766935487
 H         -3.6678587004        3.2496429503       -0.6833569582
 H         -2.7798340504        2.2456576709       -1.8415632987
 H         -7.1617634803        2.5564439091        1.3600655816
 H         -6.7632307502        0.8822717989        1.7666627308
 H         -4.9760705602        2.2392215585        2.5839520114
 H         -4.8329015403        3.1265544693        1.0545685718
 O         -3.8513324202        0.1629562389        1.9311861003
 C         -3.0043410802       -0.8941976209        1.6541500897
 O         -2.9325842101       -1.7406965514        2.5669371992
 O         -1.9100853803        0.1465812508       -1.6486870298
 C         -1.4160295002       -2.1215933201        0.2238564290
 C          0.0245736098       -1.7535359902        0.4915084591
 C          0.7233939499       -2.3342923807        1.5434001788
 C          2.0421993499       -1.9923447308        1.7854414389
 C          2.6882589798       -1.0620385603        0.9909057393
 C          1.9991677498       -0.4762949998       -0.0629815303
 C          0.6798903798       -0.8303464298       -0.3103678905
 H          0.1451639897       -0.3658569994       -1.1255539702
 N          2.6244201997        0.4967670006       -0.8573259499
 S          4.1958580897        0.2607709709       -1.3851429701
 O          4.3293315096        1.0937900315       -2.5600476096
 O          4.4975720697       -1.1417097890       -1.5556099308
 C          5.1884714597        0.9446709403       -0.0741909098
 C          4.9286557397        2.2399028401        0.3286443309
 C          5.6936819097        2.7914049196        1.3437607812
 C          6.7021836597        2.0438454193        1.9336024507
 C          6.9536611498        0.7463673096        1.5149901201
 C          6.1911158498        0.1885556300        0.5004606198
 H          6.3472389198       -0.8181898598        0.1466354093
 H          7.7385531398        0.1673542894        1.9744249897
 H          7.2954240898        2.4755285890        2.7241738709
 H          5.5007612697        3.8001555394        1.6718775817
 H          4.1378798296        2.7877884303       -0.1563312088
 H          2.0351462996        0.8608025009       -1.5918165197
 H          3.7142293398       -0.7904672404        1.1777874094
 H          2.5727370800       -2.4512631512        2.6057797286
 H          0.2207562400       -3.0479902010        2.1799525384
 H         -1.7183933801       -2.8544317605        0.9837455586
 C         -1.5697457702       -2.7627072794       -1.1420982613
 C         -1.1540968402       -4.1900001693       -1.3248224021
 C         -2.6075173702       -3.8241120094       -1.3409799318
 H         -3.1393814002       -3.8551921989       -2.2801358718
 H         -3.2117377901       -4.0984789798       -0.4882147319
 H         -0.6835432602       -4.4742411988       -2.2536291223
 H         -0.7736221501       -4.7147058597       -0.4614778824
 H         -1.3968384403       -2.0793099090       -1.9628649910
