  62
        -98.93390992
 C         -0.7706442192       -1.8173127034        0.3066781584
 C         -1.3339982306       -1.1102779549       -0.7806346982
 C         -2.5636485462       -0.3372507314       -0.5026362847
 C         -3.0517470819       -0.3046791879        0.7490003393
 C         -4.2995829589        0.3722835139        1.2563445061
 C         -5.5675209206        0.1499662293        0.4156406055
 C         -6.0478407837        1.4135374901       -0.2991444822
 H         -7.1128268702        1.3087871835       -0.5179823178
 H         -5.9375025904        2.2618470943        0.3794610925
 C         -5.3329158741        1.7197787163       -1.6141827538
 H         -5.6505286045        1.0013233697       -2.3731108917
 H         -5.6615454092        2.7073192044       -1.9466260804
 C         -3.8036885840        1.7083756427       -1.5463774024
 H         -3.4310399107        2.3293082505       -2.3638337517
 H         -3.4609865017        2.1609698967       -0.6183356547
 C         -3.1857729883        0.3128059897       -1.7090480178
 H         -3.9275597378       -0.3749991095       -2.1277852873
 H         -2.3763547119        0.3561806264       -2.4446602679
 H         -6.3619980644       -0.1836022888        1.0850988899
 H         -5.3978632523       -0.6484618897       -0.3057085602
 H         -4.4481455656       -0.0208804680        2.2644303023
 H         -4.1123389366        1.4429576879        1.3603440478
 O         -2.4199840907       -0.9234238493        1.7869322106
 C         -1.2949518096       -1.6985909805        1.5967207159
 O         -0.8571029052       -2.2312673912        2.6354213606
 H          1.1737284819       -0.6115869970       -1.2735492398
 C          1.9439969429       -0.9167866204       -0.5805358746
 C          1.7244120299       -2.0194224894        0.2340790599
 C          2.7263149091       -2.4010623351        1.1181054834
 C          3.9192851411       -1.7001479217        1.1801253763
 C          4.1336950509       -0.6005502846        0.3677697269
 C          3.1337170028       -0.2084776097       -0.5120511771
 N          3.3224466460        0.9505234000       -1.3041681293
 S          3.2163399121        2.3789455107       -0.4338957766
 O          3.2081194588        3.4438130097       -1.4097323454
 O          4.2838376547        2.4039452274        0.5325089104
 C          1.6397155236        2.2986836725        0.3990126597
 C          1.5191108262        1.5160454475        1.5306136365
 C          0.2782885641        1.4019800285        2.1362607997
 C         -0.8105858140        2.0799773512        1.6113611431
 C         -0.6727053118        2.8641590492        0.4769320389
 C          0.5608753365        2.9657058699       -0.1446320649
 H          0.7101250818        3.5606973491       -1.0313523184
 H         -1.5195713554        3.3946750510        0.0722879489
 H         -1.7694492232        1.9914222768        2.0974734441
 H          0.1615014117        0.7760303773        3.0073798467
 H          2.3883242732        1.0165559536        1.9264919637
 H          2.6726750648        0.9974439368       -2.0782274568
 H          5.0437589872       -0.0256476389        0.4201456651
 H          4.6880679403       -2.0096796412        1.8716531367
 H          2.5600567137       -3.2451578743        1.7714343071
 C          0.4155181226       -2.7605491407        0.1714064719
 H          0.3623012066       -3.4091430330        1.0598485163
 C          0.3030430450       -3.6638803125       -1.0513645217
 C          1.2091140506       -3.5782522122       -2.2391951625
 C          1.3316170915       -4.7296091039       -1.2898364773
 H          1.0021807928       -5.7066000568       -1.6094465096
 H          2.1899747958       -4.7445824162       -0.6350028994
 H          0.7732849781       -3.7477091938       -3.2120742566
 H          1.9891090837       -2.8333728848       -2.2389769246
 H         -0.7283189684       -3.9326392621       -1.2573589233
 O         -0.8566154935       -1.1132058193       -1.9459690180
