  62
        -98.94480603
 C         -1.6913665200       -1.0274421795       -0.6809937409
 C         -1.6573383899        0.1084320895        0.1648129604
 C         -2.9223369099        0.4405623188        0.8348869908
 C         -4.0060200599       -0.3340684709        0.6497160300
 C         -5.3573067599       -0.1357449516        1.2812137602
 C         -6.2497716699        0.8715607492        0.5431108514
 C         -5.8409366898        2.3373077890        0.6950103230
 H         -6.6682174598        2.9409954595        0.3165553937
 H         -5.7240840598        2.5727830379        1.7533456933
 C         -4.5629844798        2.7208065399       -0.0639713466
 H         -4.3422841999        1.9578075007       -0.8137961175
 H         -4.7255112598        3.6590613405       -0.5990697556
 C         -3.3322849398        2.9126978988        0.8226138936
 H         -2.4793655198        3.1451904395        0.1802624338
 H         -3.4904199098        3.7612632881        1.4920603345
 C         -2.9668381098        1.6857418579        1.6684373122
 H         -3.6750996998        1.5698530870        2.4888523121
 H         -1.9693565998        1.8394147674        2.0890290323
 H         -6.2721596399        0.6070981604       -0.5165417189
 H         -7.2627668599        0.7569237688        0.9356562113
 H         -5.8522394099       -1.1092337216        1.2674110592
 H         -5.2345282698        0.1762665772        2.3188754606
 O         -3.9885715299       -1.4359114101       -0.1467461712
 C         -2.8424395100       -1.8031895893       -0.8320224717
 O         -2.9723536300       -2.8274631885       -1.5329436028
 O         -0.6371501299        0.8199228093        0.3515923611
 C         -0.4476380100       -1.4862275687       -1.4265546114
 C          0.5368281100       -2.0279287099       -0.4175791221
 C          0.2375991200       -3.2208862506        0.2368277266
 C          1.1005644100       -3.7415792517        1.1810380260
 C          2.2692247601       -3.0735002021        1.5072832767
 C          2.5720640701       -1.8786261614        0.8685027380
 C          1.7148081501       -1.3728078303       -0.1000995614
 H          1.9702403601       -0.4541446197       -0.5962808904
 N          3.7534590201       -1.1728769717        1.1612479288
 S          3.6145805302        0.4457591378        1.6075032706
 O          4.8714437102        0.7354376570        2.2687644109
 O          2.4251881702        0.6723238170        2.3939872109
 C          3.5625772501        1.3396277395        0.0700804916
 C          4.6974829601        1.3278079204       -0.7172643685
 C          4.6835302501        2.0121359517       -1.9216950277
 C          3.5419291901        2.6958799822       -2.3129815069
 C          2.4135475701        2.7012558013       -1.5073771169
 C          2.4179883501        2.0173026000       -0.3009805176
 H          1.5467718202        1.9707434693        0.3344034624
 H          1.5230680901        3.2280288217       -1.8129212562
 H          3.5290857801        3.2269807032       -3.2519651763
 H          5.5583841501        2.0093872124       -2.5516756577
 H          5.5641738601        0.7903051500       -0.3704481391
 H          4.3655366601       -1.6513363224        1.8080038882
 H          2.9394472801       -3.4737616329        2.2534602862
 H          0.8598350200       -4.6710286322        1.6752320150
 H         -0.6839684100       -3.7318057103       -0.0076988539
 H         -0.7704159300       -2.3228338780       -2.0619175823
 C          0.1165962000       -0.3897536678       -2.3045539302
 C          1.1121626200       -0.7335713566       -3.3703163006
 C         -0.2788380300       -0.3230071561       -3.7474744801
 H         -0.4276511700        0.6476879544       -4.1957372291
 H         -0.9540965501       -1.0814325057       -4.1165831510
 H          1.9220225100       -0.0448839164       -3.5577125099
 H          1.3812945699       -1.7728245565       -3.4831119318
 H          0.2416603500        0.5498735717       -1.7816686392
