  62
        -98.94340247
 C          1.8683851700        0.8164225498        0.7043180822
 C          2.2240978002        0.4318311901       -0.6111781478
 C          3.6617913602        0.4651123404       -0.9171893177
 C          4.5283007601        0.8790193604        0.0253922624
 C          6.0203833801        0.9068830806       -0.1340052675
 C          6.6520530702       -0.4082720994        0.3436739522
 C          5.9789215305       -1.6581556993       -0.2237406381
 H          6.5257998206       -2.5233943893        0.1574294818
 H          4.9610198005       -1.7242657796        0.1675849919
 C          5.9353881706       -1.7151803190       -1.7571633481
 H          6.2236429207       -2.7184844889       -2.0779594583
 H          6.6650119905       -1.0200304788       -2.1740880179
 C          4.5601609006       -1.4311193591       -2.3645261981
 H          3.8083654206       -2.0609405993       -1.8818469683
 H          4.5915214607       -1.7108340289       -3.4209230882
 C          4.0857311703        0.0257511508       -2.2902866078
 H          4.8595209102        0.6860343910       -2.6868311376
 H          3.1966693904        0.1178024208       -2.9207754379
 H          7.7082158103       -0.4047448391        0.0681471423
 H          6.5855009302       -0.4485398696        1.4334903422
 H          6.2664263501        1.0820805509       -1.1793688975
 H          6.4154648599        1.7283462106        0.4660127727
 O          4.1430848099        1.2757573101        1.2658549025
 C          2.8102035699        1.2377834698        1.6417949924
 O          2.5951058098        1.5965738695        2.8179423824
 O          1.3883295903        0.0757465002       -1.4814482180
 C          0.4123616900        0.7876906195        1.1278928321
 C         -0.1809123798       -0.5864361706        0.9295002818
 C          0.5830661304       -1.7144394905        1.2167445116
 C          0.0639517406       -2.9827860005        1.0465295213
 C         -1.2380399493       -3.1552970007        0.6109068212
 C         -2.0175166795       -2.0377044507        0.3425481314
 C         -1.4861572997       -0.7641800307        0.4967145017
 H         -2.1075030298        0.0893463393        0.2827717118
 N         -3.3391514795       -2.1763251808       -0.1052288687
 S         -4.5279343997       -1.1460953311        0.4616961114
 O         -4.2775660298       -0.7406618714        1.8250996315
 O         -5.7674506095       -1.8580625013        0.2310244112
 C         -4.4736070898        0.2665949591       -0.6204558883
 C         -4.7860928100        1.5083856589       -0.1037784980
 C         -4.7958719102        2.6056274991       -0.9510525078
 C         -4.4932940701        2.4423556494       -2.2939303578
 C         -4.1825287898        1.1881187596       -2.7971056281
 C         -4.1767328297        0.0862256294       -1.9568163583
 H         -3.9357660595       -0.9004245705       -2.3155438185
 H         -3.9434254197        1.0654570299       -3.8412146781
 H         -4.4973907002        3.2977192496       -2.9510512376
 H         -5.0366972003        3.5815921090       -0.5601811876
 H         -5.0014151901        1.5930677387        0.9494545820
 H         -3.6693241093       -3.1277495909       -0.1751341690
 H         -1.6461430292       -4.1460162207        0.4798084710
 H          0.6750458707       -3.8466651005        1.2619350512
 H          1.5975160803       -1.5832469304        1.5689768917
 H          0.4020168199        1.0067092893        2.2065246322
 C         -0.3526836901        1.8778506595        0.4040680023
 C         -1.5076690903        2.5666681292        1.0644821724
 C         -0.2101498704        3.2922965094        0.8769593626
 H         -0.1610108105        4.0804297896        0.1409714428
 H          0.4140538995        3.4624858694        1.7424118127
 H         -2.3487674303        2.8573075892        0.4531617724
 H         -1.7767491603        2.2504101290        2.0614766523
 H         -0.4008661000        1.7083591497       -0.6656137377
