  62
        -98.94647666
 C          1.0008544242        1.8977476073       -0.2899482911
 C          0.2144838250        2.0167746517        0.8848080027
 C         -1.1976947301        2.3789237474        0.6730762454
 C         -1.6700065929        2.5762589119       -0.5700162474
 C         -3.0613594441        3.0165582664       -0.9384647352
 C         -4.1013840664        1.8899835884       -0.9967551333
 C         -4.5338488638        1.3346697388        0.3605312293
 H         -4.8223326737        2.1560735681        1.0171066871
 H         -5.4228116029        0.7241086005        0.1914336604
 C         -3.4681530452        0.4707686920        1.0477845921
 H         -3.9248088328       -0.4424070210        1.4376300307
 H         -2.7262073188        0.1560357204        0.3115182450
 C         -2.7452151572        1.1392573239        2.2172440964
 H         -3.4477841654        1.3009497833        3.0386882113
 H         -1.9715355669        0.4498919099        2.5668783806
 C         -2.0808583448        2.4803806387        1.8795124725
 H         -2.8410999278        3.2480887910        1.7299332973
 H         -1.4527644323        2.7695921848        2.7261436384
 H         -3.7078863611        1.0763600617       -1.6100307633
 H         -4.9843891667        2.2912496479       -1.4992621022
 H         -3.3951999624        3.7815276315       -0.2362382319
 H         -2.9868098868        3.4666097263       -1.9309339775
 O         -0.8880259692        2.4354998846       -1.6733565303
 C          0.4478737036        2.0874990377       -1.5606644702
 O          1.0383610809        1.9866867016       -2.6544185065
 H          1.3429544272       -0.3980963983        1.2676951088
 C          1.9602152864       -0.8149902037        0.4864204161
 C          2.6372075932        0.0223905094       -0.3892924980
 C          3.4478499818       -0.5446018897       -1.3656090869
 C          3.5697665028       -1.9183503766       -1.4691395934
 C          2.8600939780       -2.7504168825       -0.6225882273
 C          2.0438968513       -2.1943050612        0.3559837359
 N          1.2875523293       -3.0180303089        1.2090785669
 S         -0.3473498651       -2.7055596420        1.3986311724
 O         -0.5412512900       -1.5179246312        2.1843646980
 O         -0.8817889300       -3.9315015598        1.9519574445
 C         -0.9680845418       -2.4833971553       -0.2594694144
 C         -1.4769792614       -3.5819171524       -0.9247028534
 C         -1.9147775049       -3.4342412993       -2.2306634393
 C         -1.8238852405       -2.1985296204       -2.8538971861
 C         -1.3070512935       -1.1058142667       -2.1754539542
 C         -0.8784198370       -1.2456372151       -0.8644284190
 H         -0.4770271350       -0.4081011578       -0.3151655246
 H         -1.2234314829       -0.1429417715       -2.6570240907
 H         -2.1572154346       -2.0818631921       -3.8730307760
 H         -2.3213093888       -4.2807144644       -2.7602014531
 H         -1.5324040236       -4.5222168878       -0.4004545072
 H          1.4323915972       -4.0064888906        1.0573715898
 H          2.9326102649       -3.8232375151       -0.7169613322
 H          4.2059425075       -2.3459451587       -2.2287375954
 H          3.9712966627        0.0998446787       -2.0558161362
 C          2.4754336759        1.5222149761       -0.2973096858
 H          2.8871169217        1.9535701740       -1.2207748555
 C          3.2672109250        2.0681816967        0.8737756451
 C          4.7400118027        2.2904068251        0.7130054504
 C          3.8103599250        3.4623050485        0.8064950206
 H          3.8104982739        4.0568034079        1.7075618201
 H          3.6148226135        4.0315939781       -0.0908969836
 H          5.3853465285        2.0778983052        1.5513895542
 H          5.1801480767        2.0704357217       -0.2477915320
 H          2.9113502114        1.7197882929        1.8342194252
 O          0.6433439723        1.8546770787        2.0566067665
