  62
        -98.93521099
 C          1.6980990636       -1.0146559568       -0.2165072944
 C          2.1480789522        0.3247568406       -0.2899154019
 C          3.6064883816        0.5216037884       -0.4273448726
 C          4.4209818310       -0.5463655425       -0.5000126456
 C          5.9218301346       -0.6502142995       -0.6750130521
 C          6.8186331336        0.5689967220       -0.4772550516
 C          6.8894693616        1.0852398130        0.9595546705
 H          7.4266523256        0.3518765690        1.5662651311
 H          7.4719637569        2.0091493731        0.9622149896
 C          5.5451020216        1.3441769670        1.6351598433
 H          4.9945051613        0.4058872862        1.7292981698
 H          5.7435710956        1.7025450095        2.6489936471
 C          4.6540129812        2.3750799928        0.9448784070
 H          3.8100820606        2.5791065471        1.6099278918
 H          5.2055319866        3.3079121161        0.8120139222
 C          4.0775674364        1.9473538462       -0.4160560422
 H          3.1954824011        2.5625730977       -0.6176003471
 H          4.7884666318        2.1237201499       -1.2197534598
 H          6.5260375638        1.3660879875       -1.1543979333
 H          7.8275034652        0.2624411091       -0.7667361630
 H          6.2453476490       -1.4457355993        0.0038907673
 H          6.0758652923       -1.0316771987       -1.6904916493
 O          3.9332041875       -1.8217224215       -0.4726569848
 C          2.5835747955       -2.0879307021       -0.3335523580
 O          2.3002332185       -3.3020975611       -0.3363692621
 H         -1.6542137553        0.5705594488        0.5553129080
 C         -1.5469772825        0.3942194047       -0.5011411061
 C         -0.6187237975       -0.5185389157       -0.9745501352
 C         -0.4683886430       -0.6647893528       -2.3515392941
 C         -1.2203072218        0.0914309597       -3.2288110660
 C         -2.1572370133        0.9923899449       -2.7527891080
 C         -2.3140654890        1.1460317308       -1.3812245217
 N         -3.2545287988        2.0479687952       -0.8656112122
 S         -4.0710777188        1.6929067918        0.5437077975
 O         -5.3079332053        2.4387669811        0.4398756268
 O         -3.2606420808        1.9887369079        1.6977604679
 C         -4.4096645751       -0.0587775006        0.4707321833
 C         -5.0540391213       -0.5619211816       -0.6421412949
 C         -5.3107339950       -1.9214092214       -0.7109186488
 C         -4.9241481825       -2.7514080451        0.3302610719
 C         -4.2873572824       -2.2302112552        1.4455548960
 C         -4.0255736460       -0.8711157824        1.5177098619
 H         -3.5269581414       -0.4247686747        2.3635368454
 H         -3.9897629644       -2.8767339028        2.2560039419
 H         -5.1208685896       -3.8103447313        0.2735921213
 H         -5.8086142564       -2.3300123650       -1.5753868837
 H         -5.3494062620        0.1085471832       -1.4324825509
 H         -3.8413824835        2.5016360582       -1.5491554641
 H         -2.7487728920        1.5829138100       -3.4357088535
 H         -1.0838814421       -0.0256415340       -4.2933491984
 H          0.2605650797       -1.3723357506       -2.7233233663
 C          0.2287715124       -1.3669951655       -0.0599711937
 H          0.1516194711       -2.4111687439       -0.4058719639
 C         -0.2641031134       -1.3505002627        1.3791954252
 C          0.6485875937       -1.6859879501        2.5194171956
 C          0.1405774070       -0.2866580606        2.3527976145
 H         -0.5998988803        0.0851849481        3.0468439564
 H          0.8233629669        0.4735705974        2.0073086773
 H          0.2593044046       -2.2839046856        3.3295876862
 H          1.6855298687       -1.8848089892        2.2899598730
 H         -1.2835240706       -1.7169136790        1.4557188221
 O          1.3862073185        1.3249263754       -0.2518751387
