  62
        -98.94660310
 C          2.4937044430        0.3531311474       -0.0225561827
 C          2.2974104727        1.4947855582       -0.8330298827
 C          1.6142516352        2.6231229201       -0.1936520003
 C          1.2246508438        2.5242536373        1.0905077459
 C          0.4868830722        3.5768893792        1.8724135643
 C         -1.0298895114        3.5533183382        1.6348965041
 C         -1.4854575603        4.1293687955        0.2930172695
 H         -2.5640910780        4.2838097107        0.3624841526
 H         -1.0234287631        5.1057439654        0.1400049956
 C         -1.1970935622        3.2213949089       -0.9103658765
 H         -2.0802125897        3.1844743004       -1.5531641745
 H         -1.0134213226        2.2050321601       -0.5544771679
 C         -0.0248797339        3.6701464278       -1.7834618681
 H          0.1194347872        2.9259490145       -2.5709662375
 H         -0.2664702067        4.6234621464       -2.2598752735
 C          1.3040885027        3.8260359342       -1.0339688101
 H          2.1029614411        3.9264787041       -1.7733526426
 H          1.2843423483        4.7235260273       -0.4160798568
 H         -1.3757351207        2.5194708024        1.7206059817
 H         -1.4964701401        4.1324339909        2.4356736210
 H          0.8831033163        4.5647698218        1.6342862730
 H          0.6753046491        3.3697378954        2.9281208250
 O          1.4782976076        1.4280299220        1.8530187442
 C          2.0746585840        0.3041430459        1.3075976420
 O          2.1989645666       -0.6507133432        2.1016108210
 O          2.6667583054        1.5620387379       -2.0379170833
 C          3.0810183243       -0.9019226605       -0.6422252121
 C          2.0993532233       -2.0381179281       -0.4828638953
 C          2.4750387621       -3.3390781027       -0.1753530014
 C          1.5142968322       -4.3169602205        0.0196478141
 C          0.1677742682       -4.0121474647       -0.0535991223
 C         -0.2178003194       -2.7164935713       -0.3773837646
 C          0.7468999960       -1.7583791287       -0.6342425828
 H          0.4377345773       -0.7581245733       -0.8965777569
 N         -1.5813803483       -2.3488092582       -0.4521016968
 S         -2.0938094657       -1.1172666840        0.5942470409
 O         -1.2733238192        0.0514678485        0.4308707269
 O         -2.2089740727       -1.6514102166        1.9370179426
 C         -3.7211401098       -0.8091316598       -0.0648132711
 C         -3.8426458153        0.0440470367       -1.1441900380
 C         -5.0990507964        0.2670456136       -1.6844927892
 C         -6.2068061084       -0.3661527027       -1.1407421120
 C         -6.0694302206       -1.2193111740       -0.0563681022
 C         -4.8151945806       -1.4459451465        0.4884306386
 H         -4.6629251557       -2.0903465452        1.3392091361
 H         -6.9327215923       -1.7074242998        0.3663408660
 H         -7.1834740477       -0.1907062376       -1.5632963177
 H         -5.2086472274        0.9323026942       -2.5257712398
 H         -2.9548128879        0.5198581868       -1.5279182625
 H         -2.1847302524       -3.1466098151       -0.2895578903
 H         -0.5802101439       -4.7659010915        0.1438061253
 H          1.8189709283       -5.3242592411        0.2608419663
 H          3.5194761339       -3.5854929530       -0.0728652583
 H          3.1948582450       -0.6779791072       -1.7138424470
 C          4.4455999555       -1.2046869270       -0.0591245817
 C          5.4963767677       -1.8763380486       -0.8909599984
 C          5.6285691689       -0.4243946409       -0.5460953247
 H          6.3800294374       -0.1274102229        0.1698972706
 H          5.4511171825        0.3062365866       -1.3216283267
 H          6.1628326854       -2.5773039890       -0.4112802045
 H          5.2408410173       -2.1324630256       -1.9080019983
 H          4.3989330999       -1.4375507117        0.9991882260
