  62
        -98.93524440
 C          1.9329676917        1.0062437135        0.2555152030
 C          2.3431695365       -0.0148136422        1.1442007142
 C          2.5906435406       -1.3517549527        0.5731845051
 C          2.3684218632       -1.5415130120       -0.7403813326
 C          2.5837567982       -2.7944535796       -1.5468433357
 C          4.0688969232       -3.0589392798       -1.8483224073
 C          5.0179798776       -2.8231038348       -0.6758547406
 H          6.0399733749       -2.9189332505       -1.0516346683
 H          4.8983325941       -1.7983272032       -0.3194167459
 C          4.8591216321       -3.7890555542        0.4956293458
 H          5.6374597257       -3.5479454127        1.2239453583
 H          5.0352267818       -4.8084188739        0.1451332494
 C          3.5088792397       -3.7523058389        1.2135900744
 H          2.7428995297       -4.2595794024        0.6330878358
 H          3.6184498158       -4.3173031063        2.1439929231
 C          3.0313451944       -2.3581383965        1.6091357738
 H          2.1801340461       -2.4625551422        2.2941345047
 H          3.8141373927       -1.8632173343        2.1955373999
 H          4.1712238310       -4.0860455506       -2.2020904503
 H          4.3704171959       -2.3904305877       -2.6582365780
 H          2.0538009995       -2.6519346651       -2.4912969071
 H          2.1295943705       -3.6412478646       -1.0403472044
 O          1.9361886981       -0.5388975310       -1.5553211915
 C          1.6794826789        0.7381765174       -1.0904826395
 O          1.2556921177        1.5188580538       -1.9638311621
 O          2.5042916041        0.1793305446        2.3812308657
 C          1.6178830360        2.3712936505        0.8420628346
 C          0.2421307598        2.7929993910        0.3901860633
 C         -0.0415673713        4.0013325110       -0.2307943303
 C         -1.3302040922        4.2830163728       -0.6517244569
 C         -2.3510351528        3.3677886199       -0.4780830532
 C         -2.0782261632        2.1587502316        0.1534523664
 C         -0.7963664895        1.8934819236        0.6004063831
 H         -0.5926866642        0.9484240744        1.0851884166
 N         -3.0927640663        1.2060736035        0.3643369248
 S         -2.6719088025       -0.4275936120        0.2628970709
 O         -2.1209381692       -0.8437604777        1.5299511414
 O         -1.8554148781       -0.6747628333       -0.9042122708
 C         -4.2892746308       -1.1508124481        0.0548284525
 C         -4.7187320967       -1.5036619168       -1.2103610541
 C         -5.9911595889       -2.0321480498       -1.3634158675
 C         -6.8090307613       -2.1940073182       -0.2552995661
 C         -6.3638834053       -1.8353531986        1.0086014462
 C         -5.0924623494       -1.3078722757        1.1687978833
 H         -4.6985476003       -1.0229666532        2.1303473666
 H         -7.0014256330       -1.9650202298        1.8681217874
 H         -7.7987646100       -2.6046754160       -0.3773071881
 H         -6.3380252055       -2.3144451377       -2.3443483489
 H         -4.0439131638       -1.3653348937       -2.0401557826
 H         -3.9229542031        1.3998021154       -0.1801440722
 H         -3.3486763282        3.5801414809       -0.8314137625
 H         -1.5371668301        5.2222822417       -1.1420002007
 H          0.7490853780        4.7105421172       -0.4123882577
 H          1.5734313316        2.1917383487        1.9304077723
 C          2.6898673731        3.4271218517        0.6218020815
 C          4.1151834124        3.0382840158        0.3693204599
 C          3.3088031617        3.6759911641       -0.7198441626
 H          3.5393979809        4.6948587554       -0.9950188453
 H          2.9750587790        3.0636928242       -1.5423822146
 H          4.8962551795        3.6154426873        0.8410528218
 H          4.3371414735        1.9837783647        0.2892625760
 H          2.5373908560        4.2957106808        1.2552659809
