  62
        -98.93771950
 C          1.8905239499        1.0959312003       -0.1580724104
 C          2.4537784397       -0.0279604900       -0.8064507100
 C          3.9161698897       -0.1718367100       -0.6983919603
 C          4.6260850399        0.7566429803       -0.0348590510
 C          6.1196414199        0.8243991204        0.1620988586
 C          6.8382081100       -0.4750719294        0.5554521291
 C          6.0039360302       -1.4552474990        1.3931463398
 H          6.5838348804       -1.7550682286        2.2680760798
 H          5.0988863103       -0.9645557588        1.7550327898
 C          5.6247424700       -2.7245008893        0.6258411105
 H          5.3771810502       -3.5088177390        1.3452099510
 H          6.4954590698       -3.0636861796        0.0603191005
 C          4.4341746798       -2.5908321898       -0.3234589293
 H          4.3528493396       -3.5193906501       -0.8937791488
 H          3.5091741999       -2.4875968695        0.2507058709
 C          4.5014603595       -1.4124067203       -1.3084905399
 H          5.5173330494       -1.2492627505       -1.6604477102
 H          3.8685396293       -1.6555981007       -2.1663414596
 H          7.7291873302       -0.1860563391        1.1153442287
 H          7.1845491098       -0.9851503998       -0.3424535107
 H          6.5670454997        1.2168326700       -0.7554970417
 H          6.2694001802        1.5761354308        0.9405316282
 O          4.0415264801        1.8382256106        0.5542119687
 C          2.6712329101        2.0293145407        0.5208735189
 O          2.2764464302        3.0467148010        1.1259001785
 H         -1.7890632304       -0.0343651901       -1.2521910590
 C         -1.4223487802       -0.4543442997       -0.3310324188
 C         -0.3330269100        0.1016684206        0.3205166506
 C          0.1026358103       -0.4845556388        1.5069346508
 C         -0.5135435796       -1.6143206886        2.0067138715
 C         -1.5931687298       -2.1743838989        1.3457415020
 C         -2.0476691501       -1.5886885294        0.1717414419
 N         -3.1424669203       -2.1325104498       -0.5202801576
 S         -4.3431054904       -1.1130286200       -1.0808939478
 O         -5.4942337605       -1.9705712001       -1.2597437471
 O         -3.8957945007       -0.4014097206       -2.2501681182
 C         -4.6214892900        0.0170568407        0.2704399317
 C         -5.2351214898       -0.4703255988        1.4080959521
 C         -5.4008075995        0.3729145718        2.4942192118
 C         -4.9460965095        1.6813421117        2.4271048010
 C         -4.3362376898        2.1561802212        1.2766160606
 C         -4.1698486100        1.3175343906        0.1856851110
 H         -3.7022214803        1.6486491702       -0.7268597593
 H         -3.9859588097        3.1749590911        1.2257513300
 H         -5.0693901292        2.3363569322        3.2751439807
 H         -5.8793904593        0.0089481122        3.3890561921
 H         -5.5846956898       -1.4899766288        1.4187728627
 H         -3.5384722302       -2.9557994895       -0.0907103371
 H         -2.0713389397       -3.0627261187        1.7294322326
 H         -0.1534711494       -2.0633986381        2.9201169116
 H          0.9461579204       -0.0472546586        2.0242914704
 C          0.3899272899        1.3204507503       -0.1985863702
 H          0.1899173800        2.1581477607        0.4858641995
 C         -0.0323773805        1.7233369597       -1.5963153603
 C         -1.1714747005        2.6744446896       -1.8003785204
 C          0.2347073094        3.1225451694       -2.0604207010
 H          0.5511144792        3.2757260889       -3.0812793212
 H          0.6951108996        3.7981525098       -1.3539271015
 H         -1.8298059407        2.5180875392       -2.6424970002
 H         -1.6600651903        3.0607275200       -0.9185246805
 H          0.1049663893        0.9272060893       -2.3196476999
 O          1.7741378895       -0.8705404603       -1.4480790394
