  62
        -98.93390125
 C         -2.2978487815        0.7663085519        0.0113475142
 C         -3.1549702120        0.2832576211       -1.0112680860
 C         -4.0965695519       -0.7869927462       -0.6462856974
 C         -4.0971547894       -1.2575372080        0.6121602117
 C         -4.9332699286       -2.3642891466        1.2045959508
 C         -6.4172609166       -2.4159328813        0.8178224092
 C         -7.0755955671       -1.0474356639        0.5896579580
 H         -7.9923945221       -0.9919605493        1.1795791789
 H         -6.4154650346       -0.2514824660        0.9388206189
 C         -7.4442488575       -0.7990733665       -0.8749238720
 H         -7.8854218582       -1.7105827297       -1.2839530704
 H         -8.2082704753       -0.0190273999       -0.9169369809
 C         -6.2925903507       -0.3531237996       -1.7751458434
 H         -6.6615876814       -0.3239623235       -2.8031127182
 H         -5.9912964904        0.6651256781       -1.5147548892
 C         -5.0347525544       -1.2360218460       -1.7295377170
 H         -4.4947230134       -1.0998807151       -2.6703241173
 H         -5.2940994370       -2.2868610701       -1.6269461778
 H         -6.5397197565       -3.0225750688       -0.0782454620
 H         -6.9343253094       -2.9390394405        1.6240933051
 H         -4.8409587677       -2.2412751964        2.2865455647
 H         -4.4633427456       -3.3184971538        0.9486678286
 O         -3.2516523997       -0.7728112245        1.5637797247
 C         -2.3382185124        0.2399430422        1.3015521885
 O         -1.6482890131        0.5509396806        2.2919234659
 O         -3.1314966069        0.7310499279       -2.1880991976
 C         -1.3486115530        1.8873796324       -0.3725384747
 C          0.0151260135        1.3654540844       -0.7459034184
 C          0.6397730301        1.7708479536       -1.9192480077
 C          1.9065638203        1.3125707074       -2.2374728342
 C          2.5749591210        0.4438597521       -1.3936305558
 C          1.9585068759        0.0309545994       -0.2196631735
 C          0.6879404115        0.4892937833        0.0947980747
 H          0.2194318034        0.1753308338        1.0164900504
 N          2.6349536862       -0.8515675337        0.6474244120
 S          4.0981188313       -0.2944076177        1.2675519369
 O          4.2907004721       -1.0123781824        2.5082232630
 O          4.1166953149        1.1482850573        1.3471291916
 C          5.3003622142       -0.8549227742        0.0799364571
 C          5.4079892118       -2.2138008871       -0.1431125376
 C          6.3397397484       -2.6689115229       -1.0622634319
 C          7.1448058789       -1.7628278456       -1.7368553223
 C          7.0267636133       -0.4019866298       -1.4989696812
 C          6.0960515291        0.0600946522       -0.5812186706
 H          5.9645931034        1.1085669974       -0.3665308467
 H          7.6539662716        0.3003954538       -2.0240059884
 H          7.8691649811       -2.1198526614       -2.4517980930
 H          6.4349959443       -3.7263566989       -1.2495329044
 H          4.7661441968       -2.8824451977        0.4060244482
 H          2.0504932636       -1.1743820696        1.4064415395
 H          3.5617355638        0.0838644297       -1.6348852233
 H          2.3792225107        1.6355519970       -3.1522489049
 H          0.1217011787        2.4436969824       -2.5867962002
 H         -1.7922277123        2.3260331055       -1.2803581657
 C         -1.2813763824        2.9910147584        0.6760974798
 C         -0.0775533665        3.2710826069        1.5204595687
 C         -0.4582051158        4.2198676853        0.4259221583
 H         -0.8684835471        5.1822763200        0.6914584947
 H          0.1624106872        4.2299356156       -0.4573574773
 H         -0.2455487686        3.5617820877        2.5465875482
 H          0.8047871172        2.6633444140        1.3880140289
 H         -2.2419289118        3.1427788091        1.1590767109
