  62
        -98.94364501
 C         -1.8119316787       -0.3282480847       -0.3021790472
 C         -2.9715259798       -0.6107573588       -1.0622255253
 C         -4.2370738307       -0.6106446720       -0.3200846543
 C         -4.2332367097       -0.3760273820        1.0050389894
 C         -5.4386036249       -0.3748118758        1.9059469316
 C         -6.2077190638        0.9533291464        1.9216201777
 C         -7.0139657911        1.2536482958        0.6574205739
 H         -7.6517104754        0.4007037737        0.4231163752
 H         -7.6690870455        2.0961824396        0.8877928541
 C         -6.1604223909        1.6128211448       -0.5668706570
 H         -6.5813447932        2.4923476324       -1.0592331624
 H         -5.1520564343        1.8796151999       -0.2425103273
 C         -6.0646136333        0.5077964844       -1.6187959122
 H         -5.4084368592        0.8542948192       -2.4213209512
 H         -7.0519583720        0.3229477983       -2.0478991041
 C         -5.5058412273       -0.8198354463       -1.0904006256
 H         -5.2733726060       -1.4588958557       -1.9459671120
 H         -6.2497299459       -1.3214292244       -0.4716619398
 H         -5.4995408221        1.7648504841        2.1035178894
 H         -6.8984589656        0.9191283154        2.7672909372
 H         -6.1118791896       -1.1828007239        1.6180274329
 H         -5.0710753828       -0.5715616381        2.9153572649
 O         -3.0931497554       -0.1274804102        1.7029298191
 C         -1.8588791023       -0.0817902249        1.0701047371
 O         -0.9036865523        0.1767125057        1.8255704212
 O         -2.9483009964       -0.8615725571       -2.2976276589
 C         -0.4643288786       -0.3008618349       -0.9984503699
 C          0.4713872168       -1.3116360143       -0.3829002419
 C          0.0002018634       -2.5940459368       -0.1114365680
 C          0.8253020242       -3.5449985772        0.4552127633
 C          2.1441505330       -3.2445151384        0.7483195348
 C          2.6294456776       -1.9737356427        0.4686705354
 C          1.7937984800       -1.0165023790       -0.0919433992
 H          2.1902973669       -0.0377601661       -0.3026830879
 N          3.9549739154       -1.6327672836        0.7695778952
 S          4.8286098152       -0.6309815985       -0.2416443219
 O          4.4840144970       -0.8381734041       -1.6288386885
 O          6.2112146974       -0.8795664210        0.1089265004
 C          4.3993988774        1.0229951559        0.2581979456
 C          4.1713105875        1.2890939274        1.5935833869
 C          3.8774251837        2.5883908322        1.9752290042
 C          3.8254849233        3.5955394173        1.0235981640
 C          4.0636996331        3.3132668084       -0.3124735618
 C          4.3538336363        2.0148676311       -0.7015392816
 H          4.5339970010        1.7482673226       -1.7309762858
 H          4.0225423904        4.0978152429       -1.0515050678
 H          3.5959512382        4.6056025889        1.3246446810
 H          3.6870329731        2.8105212478        3.0129231286
 H          4.2129860002        0.4837264282        2.3077219985
 H          4.5191429426       -2.3808038256        1.1447218529
 H          2.7905957224       -3.9865641925        1.1917166158
 H          0.4418194575       -4.5319856666        0.6665821700
 H         -1.0282585490       -2.8333986009       -0.3457175018
 H         -0.6637905984       -0.6118837611       -2.0354514394
 C          0.0895018895        1.1087456620       -1.0119273869
 C          0.9925103557        1.5600040856       -2.1194904199
 C         -0.4131051946        2.0731099366       -2.0426805989
 H         -0.5721786859        3.1009836041       -1.7537081105
 H         -1.1344891119        1.7030250892       -2.7566518627
 H          1.7983992553        2.2367897281       -1.8791371109
 H          1.2356600153        0.8443695945       -2.8906552347
 H          0.2733491150        1.4915065495       -0.0139568683
