  62
        -98.94273914
 C         -1.8644045301       -1.4145056695       -0.2251042402
 C         -2.1502479398       -0.2818191895       -1.0264649103
 C         -3.5274426398        0.2321212206       -0.9416953106
 C         -4.4204302200       -0.3801554093       -0.1446207108
 C         -5.8264079801        0.0882210008        0.0911661688
 C         -5.8975358103        1.0412329909        1.2928721188
 C         -4.8553295702        2.1594644408        1.2600874990
 H         -5.0205224303        2.7835301308        2.1410721289
 H         -3.8582263402        1.7234964107        1.3587917892
 C         -4.9011287698        3.0342394807       -0.0005433811
 H         -4.8230166998        4.0821498707        0.2967418689
 H         -5.8611930497        2.9105650508       -0.5030488213
 C         -3.7716200096        2.7699324006       -0.9980349108
 H         -2.8078611897        2.8050841405       -0.4825210106
 H         -3.7739129494        3.5759748906       -1.7369912308
 C         -3.8580867795        1.4447564906       -1.7654859308
 H         -4.8458881794        1.3457537206       -2.2201245810
 H         -3.1123357593        1.4771706505       -2.5654365406
 H         -6.8979431202        1.4761111609        1.3296830885
 H         -5.7451799505        0.4597824409        2.2050166288
 H         -6.1930782198        0.5869264908       -0.8038252413
 H         -6.4508787702       -0.7836215291        0.2927715987
 O         -4.1189149503       -1.4824974393        0.5869846193
 C         -2.8412351703       -2.0136538494        0.5765173096
 O         -2.7006665206       -3.0152187094        1.3065685197
 H          0.6993370001        0.4088547403       -0.5146738997
 C          0.8904299099       -0.0048857797        0.4629863204
 C          0.3656462397       -1.2406565496        0.8172709003
 C          0.5908831293       -1.7204229796        2.1039199804
 C          1.3226235892       -0.9818129996        3.0151618105
 C          1.8577174694        0.2415495603        2.6542446006
 C          1.6357886797        0.7330781003        1.3727257905
 N          2.1612494299        1.9805565702        0.9896107606
 S          3.0694122502        2.0861716601       -0.4137097792
 O          3.7814341103        3.3398297700       -0.2865797891
 O          2.2329535705        1.9419242501       -1.5748964294
 C          4.2136779901        0.7239681000       -0.2917845989
 C          5.4049939999        0.9235375599        0.3784449714
 C          6.2695147898       -0.1461337501        0.5433682016
 C          5.9224921798       -1.3945807101        0.0493700116
 C          4.7219295500       -1.5786200300       -0.6188065287
 C          3.8560023501       -0.5106818700       -0.7950080489
 H          2.9168227002       -0.6158731899       -1.3127579591
 H          4.4515285200       -2.5498465900       -1.0012146487
 H          6.5921573097       -2.2294478602        0.1828043418
 H          7.2063800797       -0.0047974402        1.0577278218
 H          5.6355488699        1.9124559399        0.7405277414
 H          2.6362932898        2.4674679002        1.7366864007
 H          2.4324705692        0.8204715603        3.3614386507
 H          1.4836045589       -1.3640220196        4.0116125306
 H          0.1642290992       -2.6710111396        2.3895546503
 C         -0.4799030402       -2.0429127996       -0.1434628298
 H         -0.6351335003       -3.0356222396        0.3004164802
 C          0.1832180201       -2.2261763897       -1.4930040697
 C          1.2663013001       -3.2520773498       -1.6339626594
 C         -0.0755955298       -3.4877000597       -2.2583896597
 H         -0.1652965895       -3.4286458098       -3.3327647797
 H         -0.7288844100       -4.2202257997       -1.8065034498
 H          1.5258360598       -3.8293294898       -0.7593248093
 H          2.0982206102       -3.0337886099       -2.2862477192
 H          0.2729675303       -1.3116665298       -2.0645127797
 O         -1.3204976596        0.2871742204       -1.7833285701
