  62
        -98.94098062
 C          2.0459627369        0.7291217016       -0.4505966513
 C          3.1728542681        1.2824050046        0.2114432838
 C          4.4533570907        0.5932720676        0.0083538186
 C          4.4889194606       -0.5109426292       -0.7589730266
 C          5.7113803026       -1.3461211212       -1.0040594561
 C          5.8333352626       -2.4698982967        0.0346244177
 C          5.6749907313       -1.9959425910        1.4794072323
 H          4.6517943454       -1.6431926816        1.6284008085
 H          5.8102708885       -2.8673989434        2.1236954541
 C          6.6576788672       -0.8931232469        1.8975346840
 H          7.0622344836       -1.1394524051        2.8815442534
 H          7.4967876574       -0.8613219289        1.2015716336
 C          6.0373494630        0.5009287794        2.0072421128
 H          5.1408459628        0.4547609818        2.6305703384
 H          6.7541402011        1.1529890577        2.5134458366
 C          5.6667797226        1.1731379064        0.6792374680
 H          6.5255616616        1.1537506535        0.0050562240
 H          5.4212007562        2.2173776320        0.8938427210
 H          5.0594419927       -3.2140437183       -0.1680267814
 H          6.8061551426       -2.9494719094       -0.0885369269
 H          5.6318344008       -1.7896836304       -1.9980590968
 H          6.5931012075       -0.7089233720       -0.9707520027
 O          3.3889891490       -1.0232851252       -1.3639200082
 C          2.1382195832       -0.4314166664       -1.2210129795
 O          1.2310872929       -1.0324925471       -1.8247520547
 O          3.1086916371        2.3067044768        0.9418956072
 C          0.7089447421        1.4176590601       -0.2357945869
 C         -0.3353650352        0.4056284171        0.1585838274
 C         -0.2724373770       -0.1671882207        1.4256440607
 C         -1.1952950717       -1.1169412947        1.8206983987
 C         -2.2032556635       -1.5144491503        0.9603392945
 C         -2.2749149209       -0.9489162014       -0.3054781299
 C         -1.3527316511        0.0130858322       -0.6965763571
 H         -1.4065689361        0.4272316900       -1.6911537126
 N         -3.3007680080       -1.3474990807       -1.1797419229
 S         -4.8631457398       -1.3689996913       -0.5836763250
 O         -5.0747283604       -2.5648805831        0.1929969698
 O         -5.7159291450       -1.2063710941       -1.7399768169
 C         -4.9574835695        0.0655581651        0.4729227489
 C         -4.8673280841        1.3103594877       -0.1184132580
 C         -4.8776056266        2.4376030565        0.6862941556
 C         -4.9717617293        2.3013319487        2.0631098551
 C         -5.0654075605        1.0451975352        2.6411855165
 C         -5.0566347208       -0.0860993941        1.8406671746
 H         -5.1283951066       -1.0805194882        2.2495923997
 H         -5.1409229692        0.9427698790        3.7117412083
 H         -4.9733062924        3.1804409188        2.6880351407
 H         -4.8077182626        3.4163405117        0.2393099396
 H         -4.8022580385        1.3786749191       -1.1925161146
 H         -3.2553870698       -0.9135627749       -2.0895454261
 H         -2.9245479819       -2.2639410259        1.2431891342
 H         -1.1290090731       -1.5556333059        2.8047628538
 H          0.5203096187        0.1361380272        2.0958541881
 H          0.8840523780        2.0777049965        0.6295605053
 C          0.2689750736        2.3202953472       -1.3785463006
 C          1.2778239995        3.0852067464       -2.1805373886
 C          0.4909025130        1.9835029425       -2.8216402145
 H         -0.2772643413        2.2526778683       -3.5326234374
 H          0.9918779854        1.0569590646       -3.0538713326
 H          1.0543752466        4.1056797676       -2.4528650849
 H          2.3218894536        2.9082665523       -1.9667949709
 H         -0.6523874597        2.8436614720       -1.1405769677
