  62
        -98.94419764
 C          1.8900592454        1.3494824784        0.5918911159
 C          2.6521736481        0.8061825566       -0.4720287078
 C          3.2927182245       -0.4879827958       -0.1983298046
 C          3.1068864526       -1.0967136382        0.9859942122
 C          3.6803783557       -2.4233568927        1.4030475539
 C          2.8618064099       -3.6274028103        0.9168041844
 C          2.9759901113       -3.9307971454       -0.5779714282
 H          4.0289904338       -3.9893624797       -0.8551638059
 H          2.5449874656       -4.9212298012       -0.7381831507
 C          2.2568116876       -2.9252349613       -1.4885314074
 H          1.6879520638       -3.4655648262       -2.2481071965
 H          1.5409499177       -2.3449148701       -0.9019245777
 C          3.1836622410       -1.9588973816       -2.2253553520
 H          3.8189373189       -2.5132523963       -2.9198638218
 H          2.5659491736       -1.2707836516       -2.8077073342
 C          4.0811253410       -1.1230226362       -1.3042486471
 H          4.5275008259       -0.3211051404       -1.8973033888
 H          4.8802129371       -1.7402517095       -0.8943093791
 H          3.2097252948       -4.5025184266        1.4704804221
 H          1.8144841498       -3.4604947762        1.1777731470
 H          4.7074634729       -2.5095438406        1.0476612134
 H          3.6892286657       -2.4296589579        2.4951024965
 O          2.3514650290       -0.5503513597        1.9761192323
 C          1.7160949035        0.6643597962        1.7975722810
 O          1.0317953304        1.0301576510        2.7762356880
 O          2.8049644025        1.3530612810       -1.5940742869
 C          1.1231158791        2.6581068585        0.4595946149
 C         -0.1572134201        2.3410894158       -0.2750668365
 C         -0.2581350850        2.3598988906       -1.6609205179
 C         -1.4375289355        1.9812112323       -2.2786616433
 C         -2.5343572235        1.5802498320       -1.5360570485
 C         -2.4392957709        1.5501232841       -0.1504779784
 C         -1.2568710443        1.9299884322        0.4676913748
 H         -1.1751493091        1.8888948050        1.5460267055
 N         -3.5447919431        1.1550913175        0.6266355341
 S         -4.3359284945       -0.2698881059        0.2569681695
 O         -5.0512376219       -0.1092897892       -0.9836148316
 O         -5.1366538095       -0.5671847873        1.4223701124
 C         -3.0594760263       -1.5002151842        0.0660287242
 C         -2.6247403478       -1.8504220551       -1.1962030700
 C         -1.6260129920       -2.8030003103       -1.3188204434
 C         -1.0823560101       -3.3856924595       -0.1844576006
 C         -1.5230798664       -3.0155556890        1.0769709260
 C         -2.5187727074       -2.0611753291        1.2059921434
 H         -2.8966139775       -1.7588750077        2.1697613063
 H         -1.0965779327       -3.4662216848        1.9592970163
 H         -0.3134059486       -4.1354831075       -0.2842460944
 H         -1.2760563268       -3.0894564430       -2.2974398156
 H         -3.0820713229       -1.3857160228       -2.0539632984
 H         -3.3698142550        1.2051434497        1.6200045439
 H         -3.4594544189        1.2888639785       -2.0063486431
 H         -1.5050376817        1.9996898289       -3.3559016821
 H          0.5971331036        2.6462888334       -2.2510183342
 H          0.8550606016        2.9530023427        1.4831382789
 C          1.9263411675        3.7773325176       -0.1656508835
 C          1.4170021250        5.1815050810       -0.0486520885
 C          2.6283922823        4.7565996241        0.7243315574
 H          3.5941021387        5.1297099715        0.4179699313
 H          2.5319152088        4.6242556716        1.7924626615
 H          1.5484779633        5.8493585518       -0.8859998403
 H          0.4967449333        5.3348952878        0.4951160120
 H          2.4298175431        3.4962058300       -1.0803632341
