  62
        -98.93777383
 C         -1.1789791724       -1.4498744910        0.8278100613
 C         -2.1297673529       -1.2578579551       -0.2051559048
 C         -3.1377172422       -0.2204004180        0.0470186266
 C         -3.1145183097        0.4747801135        1.1979895505
 C         -4.0568520250        1.5821626715        1.5830005991
 C         -3.6484654519        2.9499484470        1.0179568278
 C         -3.8929848036        3.1336273918       -0.4805459830
 H         -4.9188942525        2.8506362017       -0.7204323467
 H         -3.7892606067        4.1999754807       -0.6915384271
 C         -2.9175228936        2.3607272330       -1.3797680507
 H         -2.0306213038        2.0832162965       -0.8036969412
 H         -2.5704109584        3.0151048310       -2.1836390177
 C         -3.5104355114        1.1138374408       -2.0376481598
 H         -2.7166611139        0.6171297132       -2.6016470041
 H         -4.2915044890        1.4106581788       -2.7419332962
 C         -4.1021387298        0.0942524146       -1.0559664746
 H         -5.0422710772        0.4650200011       -0.6483424813
 H         -4.2954903460       -0.8321792006       -1.6026067799
 H         -2.5885255824        3.1142333827        1.2299338774
 H         -4.2197597947        3.7108724077        1.5553653040
 H         -4.0427374525        1.6411097330        2.6735446939
 H         -5.0691942381        1.3382757013        1.2596851973
 O         -2.2022544565        0.2385293780        2.1777771712
 C         -1.1874023314       -0.6869429089        1.9933520845
 O         -0.3636653520       -0.7405276574        2.9320932107
 O         -2.1290476242       -1.9000013764       -1.2849571825
 C         -0.0221543288       -2.4189273500        0.6169945715
 C          0.7203453858       -1.9951066364       -0.6338038107
 C          1.2797976139       -2.8035732435       -1.6153259957
 C          1.9484044187       -2.2445412976       -2.6940319959
 C          2.1003009157       -0.8775203344       -2.8229556750
 C          1.5592393689       -0.0548950846       -1.8414417740
 C          0.8945245869       -0.6202217950       -0.7693798111
 H          0.4656266118        0.0387104688       -0.0324053531
 N          1.6616747939        1.3412232094       -1.9120387075
 S          1.7170801611        2.2610292944       -0.5195110309
 O          0.4273935957        2.3001278822        0.1229403114
 O          2.2358225062        3.5373295239       -0.9649492797
 C          2.9324530403        1.4541465822        0.5077133016
 C          2.5710117081        0.7953823180        1.6644297298
 C          3.5523935845        0.1462615684        2.3986019984
 C          4.8693651922        0.1673381887        1.9686617567
 C          5.2187964509        0.8417719686        0.8080200955
 C          4.2430362867        1.4889326661        0.0693037359
 H          4.4758856907        2.0344581324       -0.8307258626
 H          6.2447720361        0.8620876714        0.4778654291
 H          5.6262586102       -0.3426433831        2.5433508927
 H          3.2698228544       -0.3757905041        3.2990539557
 H          1.5397434889        0.7835686091        1.9832452186
 H          2.2583949517        1.7010362800       -2.6409568106
 H          2.6159915254       -0.4513666660       -3.6693698889
 H          2.3616609382       -2.8954232328       -3.4496994846
 H          1.1974220145       -3.8741063597       -1.5726010429
 H          0.6675045404       -2.2384151596        1.4602676549
 C         -0.5525404683       -3.8347740911        0.7929976956
 C         -0.9947781107       -4.7438780456       -0.3089645699
 C          0.2097278430       -5.0964321715        0.5134823310
 H          0.1121415220       -5.9020504255        1.2266083851
 H          1.1930685475       -5.0283015923        0.0788135838
 H         -1.9024245065       -5.3097290262       -0.1567420932
 H         -0.8762295426       -4.3989231796       -1.3226223301
 H         -1.1653573410       -3.8624978954        1.6923920868
