  62
        -98.94042575
 C         -2.0449923533       -0.4517892085        0.1065537676
 C         -2.7116598166        0.7312150462        0.5176833697
 C         -4.0575086889        0.9489955148       -0.0258263694
 C         -4.5689092192        0.0489933150       -0.8851358426
 C         -5.9446411472        0.1152225120       -1.4809810105
 C         -6.9643294435       -0.6338785975       -0.6118403531
 C         -6.9035961755       -0.2624904448        0.8697781644
 H         -5.9478606789       -0.5945683295        1.2816096995
 H         -7.6869754999       -0.8277234146        1.3793174374
 C         -7.0844410892        1.2346229698        1.1568582665
 H         -7.7774010970        1.3499138212        1.9930122708
 H         -7.5347965099        1.7259847384        0.2936175145
 C         -5.7970991329        1.9664656907        1.5411747787
 H         -5.2932508629        1.4239961226        2.3451734713
 H         -6.0691085282        2.9507760365        1.9317068972
 C         -4.7904550150        2.1881276315        0.4051015055
 H         -4.0234862170        2.8776797083        0.7700853443
 H         -5.2926469922        2.6538697090       -0.4455214339
 H         -6.7764466721       -1.7060824241       -0.7040793708
 H         -7.9641419778       -0.4297343067       -0.9992918992
 H         -6.2382677064        1.1577963323       -1.5874658028
 H         -5.9136677591       -0.3468408497       -2.4692012731
 O         -3.8950076097       -1.0594315752       -1.2766826973
 C         -2.6197990530       -1.3449263198       -0.7990117315
 O         -2.1412764273       -2.3968702282       -1.2581833866
 H          1.3020205766        1.0319332712        1.4004484494
 C          1.3443803074        0.7902617343        0.3470489861
 C          0.3954450818       -0.0632999541       -0.1959694973
 C          0.4551634952       -0.3494680317       -1.5562634906
 C          1.4375418306        0.2144807724       -2.3497982126
 C          2.3821726216        1.0666421480       -1.8045307982
 C          2.3346273067        1.3537440538       -0.4473424685
 N          3.3209749383        2.1900203387        0.1139098990
 S          4.9026843350        1.6542144949       -0.0624672780
 O          5.6517394743        2.3116943796        0.9837850215
 O          5.3408551256        1.9003809384       -1.4122167184
 C          4.7898761372       -0.0990282583        0.2422913679
 C          4.6924844830       -0.9733620379       -0.8212534219
 C          4.4885035473       -2.3196363465       -0.5636904312
 C          4.3856791578       -2.7659637422        0.7443112134
 C          4.4970188133       -1.8764636990        1.8021913289
 C          4.6939404820       -0.5283750181        1.5513585589
 H          4.7860715122        0.1943192096        2.3465674410
 H          4.4211843530       -2.2284954457        2.8184804441
 H          4.2141539598       -3.8120319125        0.9410927567
 H          4.4027379123       -3.0141980414       -1.3837718671
 H          4.7807304070       -0.5883763331       -1.8236251995
 H          3.1419047858        2.4275465970        1.0793891278
 H          3.1586244699        1.5099106045       -2.4069809418
 H          1.4694719283       -0.0131507491       -3.4045581953
 H         -0.2734349420       -1.0234518915       -1.9808032689
 C         -0.6602457931       -0.6793122708        0.6856802279
 H         -0.6626502767       -0.1183459274        1.6337971676
 C         -0.3677515146       -2.1361300971        1.0200922094
 C          0.6833249022       -2.9499205958        0.3319371071
 C          0.8993059714       -2.4916438772        1.7406045885
 H          0.8550408570       -3.2173680198        2.5380513399
 H          1.6170732359       -1.7004884854        1.8987428872
 H          1.2643806760       -2.4836756531       -0.4479312534
 H          0.4637487268       -3.9902715995        0.1486591591
 H         -1.2636990321       -2.6692680713        1.3200657893
 O         -2.1998234058        1.5649978187        1.3135317538
