  62
        -98.93558255
 C         -1.8711152105       -0.7232255647       -0.0162324255
 C         -2.6379382588       -0.2582039847        1.0796685905
 C         -3.7536331868        0.6553908742        0.7768559851
 C         -3.9576384545        1.0448442905       -0.4951067942
 C         -4.9769254633        1.9887746637       -1.0982579098
 C         -6.1997496307        2.4322089537       -0.2994101968
 C         -7.2090751049        1.3223466780       -0.0069199028
 H         -7.9825977245        1.7282504323        0.6486259465
 H         -7.6874477985        1.0324095742       -0.9458651614
 C         -6.6343690216        0.0576113363        0.6262687220
 H         -5.9307592454       -0.4106516954       -0.0652579485
 H         -7.4577247192       -0.6468585044        0.7722586924
 C         -5.9479944335        0.2561164368        1.9763892459
 H         -5.7315836694       -0.7349962329        2.3844422748
 H         -6.6301887398        0.7582850113        2.6649956232
 C         -4.6245535711        1.0399980425        1.9381386461
 H         -4.7997559783        2.1132264269        1.9489493327
 H         -4.0584842665        0.7917851024        2.8408376877
 H         -6.7077326948        3.1889110122       -0.9035455782
 H         -5.8922156057        2.9206116185        0.6205977311
 H         -5.3093942831        1.5132081055       -2.0265862371
 H         -4.4147386215        2.8811295203       -1.3955844957
 O         -3.1449445004        0.6295780765       -1.5095283094
 C         -2.0965712522       -0.2590706386       -1.3118946038
 O         -1.4685279504       -0.5318801566       -2.3503191099
 O         -2.3940857680       -0.5843928373        2.2726503183
 C         -0.7355453832       -1.6877297887        0.2751058667
 C          0.5253778312       -1.2265780824       -0.4111615691
 C          1.2107409160       -1.9780749627       -1.3555376462
 C          2.3526942901       -1.4755113711       -1.9555382653
 C          2.8386254854       -0.2246863828       -1.6248333679
 C          2.1673930870        0.5307061235       -0.6708125431
 C          1.0283441963        0.0227023727       -0.0661216934
 H          0.5007440066        0.6161660260        0.6708875189
 N          2.6543760177        1.7997728893       -0.3203686388
 S          4.3027206756        2.0131753077       -0.1478191482
 O          4.4425869578        3.1152279397        0.7785574121
 O          4.9103563289        2.2005869110       -1.4418557586
 C          4.9034093990        0.5014083623        0.5858685337
 C          5.8592003134       -0.2489796855       -0.0679585634
 C          6.2932810763       -1.4318838747        0.5089029118
 C          5.7636479307       -1.8433132176        1.7218299659
 C          4.8066287512       -1.0761745031        2.3687363764
 C          4.3709498337        0.1083669491        1.7978603364
 H          3.6319354997        0.7291547814        2.2787996795
 H          4.3958953398       -1.3971052296        3.3125923874
 H          6.0981669289       -2.7665901895        2.1677380367
 H          7.0389348167       -2.0289254898        0.0092351275
 H          6.2412813386        0.1065879516       -1.0110592873
 H          2.1372568471        2.2575645413        0.4146723684
 H          3.7115503789        0.1880879187       -2.1038441745
 H          2.8674102986       -2.0638294720       -2.6996604106
 H          0.8350136220       -2.9451082097       -1.6455392820
 H         -0.5788269355       -1.5978979389        1.3632807231
 C         -1.0720992795       -3.1472551498        0.0095158329
 C         -2.4824600549       -3.6432993957        0.1145905576
 C         -1.8028020816       -3.5951643752       -1.2193772243
 H         -1.5101084073       -4.5288267214       -1.6772458545
 H         -2.1037417143       -2.8388145741       -1.9269965305
 H         -2.6561308652       -4.6059295092        0.5716478708
 H         -3.2549812425       -2.9167371606        0.3213278934
 H         -0.3021248244       -3.8133368695        0.3863388545
