  62
        -98.93360723
 C         -2.5683118144       -0.1843295563       -0.6064695054
 C         -2.2525245505       -0.6468717571        0.6953774487
 C         -1.7715195145       -2.0341369216        0.7805576703
 C         -1.6498283628       -2.7633372312       -0.3425639476
 C         -1.1597899407       -4.1812215352       -0.4002076719
 C          0.3546237619       -4.2517037589       -0.6339475112
 C          1.1739887485       -3.3706796349        0.3097760130
 H          2.2283683334       -3.5571961026        0.0904222527
 H          0.9887587033       -2.3189069601        0.0764399929
 C          0.9129404699       -3.6135866005        1.8025477972
 H          0.4474497414       -4.5903775903        1.9444877859
 H          1.8728598463       -3.6299939333        2.3228299895
 C          0.0617610844       -2.5365158061        2.4785105507
 H          0.4554051308       -1.5497810788        2.2202645969
 H          0.1566645863       -2.6572706757        3.5612939053
 C         -1.4357151405       -2.5636752806        2.1456880705
 H         -1.8250418057       -3.5764816381        2.2742044287
 H         -1.9458295179       -1.9045869528        2.8542421241
 H          0.6693311241       -5.2920546194       -0.5277682585
 H          0.5633649779       -3.9331608109       -1.6580500166
 H         -1.4170889914       -4.6830394685        0.5307867606
 H         -1.6675274788       -4.6832578196       -1.2261113688
 O         -1.9495093194       -2.2790022808       -1.5766182179
 C         -2.3830842168       -0.9751964793       -1.7388732795
 O         -2.5810481380       -0.6419625449       -2.9279064973
 H         -0.5529406428        1.2284050669       -1.5271520999
 C         -0.6887566140        1.9381733408       -0.7182123372
 C         -1.9670442242        2.1369345906       -0.1984667154
 C         -2.0934215359        3.0428702682        0.8457614624
 C         -0.9818534924        3.6922621419        1.3613369092
 C          0.2865470800        3.4467692443        0.8701533422
 C          0.4237512150        2.5594336569       -0.1857508139
 N          1.7315221714        2.2128164399       -0.6585786343
 S          2.0561819888        0.5841144815       -0.3241263892
 O          1.6380010474       -0.2527208080       -1.4321064036
 O          1.5128606929        0.2774790407        0.9735110956
 C          3.8365865123        0.6114181343       -0.2351004895
 C          4.4178113096        1.2181940614        0.8615939947
 C          5.7993859406        1.2889677845        0.9347086972
 C          6.5728904574        0.7555816972       -0.0859645119
 C          5.9752011032        0.1484117487       -1.1795227279
 C          4.5927631581        0.0763956134       -1.2587725099
 H          4.0837964277       -0.3896280693       -2.0874047406
 H          6.5782244768       -0.2676413341       -1.9705603887
 H          7.6484057265        0.8122417793       -0.0279019190
 H          6.2677772773        1.7589876712        1.7844172326
 H          3.7739874378        1.6106910341        1.6312839463
 H          1.8152021137        2.3395102840       -1.6591863377
 H          1.1592881253        3.9160094763        1.2934021454
 H         -1.1108139649        4.3814947444        2.1821179884
 H         -3.0482654445        3.2334667956        1.3010745672
 C         -3.0218878345        1.2570864826       -0.8270700124
 H         -2.9484613238        1.4129965266       -1.9169650504
 C         -4.4993936447        1.3872113645       -0.4957479321
 C         -5.0731761286        1.5903980761        0.8713085326
 C         -5.1987466156        2.6709879900       -0.1622465788
 H         -6.1720776479        2.8367886157       -0.6000746836
 H         -4.6102974831        3.5683751968       -0.0654643297
 H         -4.3872385022        1.6990378500        1.6949730779
 H         -5.9584714281        1.0259472692        1.1272167479
 H         -5.0549786428        0.7041581119       -1.1357523750
 O         -2.3767512021        0.0509307747        1.7327283726
