  62
        -98.94162663
 C          2.5621572460        0.0501282317       -0.5149448407
 C          2.7776618088       -0.8985775275        0.5178562977
 C          2.3074173191       -2.2623003204        0.2654658832
 C          1.7178814092       -2.5524704921       -0.9080694071
 C          1.1571219981       -3.8881958394       -1.3133640568
 C         -0.2712580236       -4.1224675399       -0.8021874952
 C         -0.3805809753       -4.4294503386        0.6920475023
 H         -1.3888173318       -4.8094465956        0.8687454757
 H          0.3199818343       -5.2236637639        0.9539721729
 C         -0.1500545986       -3.2145304490        1.6020588006
 H         -0.2653981143       -2.2946650028        1.0224308630
 H         -0.9207550278       -3.1853631757        2.3767923083
 C          1.2041281073       -3.1970444062        2.3122485542
 H          1.2711422590       -2.2692690896        2.8870229013
 H          1.2600957826       -4.0336473804        3.0132307647
 C          2.4170340155       -3.2639492093        1.3750605262
 H          2.5241688142       -4.2700307179        0.9699240432
 H          3.3106836395       -3.0208577651        1.9555933576
 H         -0.8713213045       -3.2376330174       -1.0304989038
 H         -0.6862500762       -4.9660631463       -1.3590415026
 H          1.8102489171       -4.6877444182       -0.9625856876
 H          1.1409721597       -3.9021219013       -2.4052150330
 O          1.5702779833       -1.6321062197       -1.8925646562
 C          1.9257316980       -0.3024731780       -1.7061500376
 O          1.6353150662        0.4229802259       -2.6783577830
 O          3.3411127806       -0.6095064405        1.6097933470
 C          2.9291238503        1.4848676942       -0.1804887883
 C          1.7786991837        2.1466633379        0.5467059462
 C          2.0000669559        3.0051768520        1.6168759801
 C          0.9352031714        3.5654182809        2.2998967188
 C         -0.3664934204        3.2515563860        1.9522831741
 C         -0.5982694098        2.3957775182        0.8819905842
 C          0.4717509425        1.8809088410        0.1672516302
 H          0.2776489269        1.2321879194       -0.6709732596
 N         -1.9100924839        2.0333387430        0.5022684882
 S         -2.2868550296        0.3813912004        0.5351510412
 O         -2.4071873868       -0.0440918533        1.9157030370
 O         -1.3684181213       -0.3628308583       -0.2839770834
 C         -3.8961563608        0.4205991389       -0.2274379874
 C         -5.0337175623        0.3543219272        0.5533918429
 C         -6.2736081119        0.4224837239       -0.0628476980
 C         -6.3529117879        0.5589130832       -1.4403653369
 C         -5.2010642782        0.6229060958       -2.2108540414
 C         -3.9586808134        0.5545218148       -1.6008863047
 H         -3.0362470855        0.5928522853       -2.1581753048
 H         -5.2653193306        0.7261314098       -3.2821448168
 H         -7.3181072066        0.6131858335       -1.9185789770
 H         -7.1709487949        0.3700464070        0.5322955742
 H         -4.9228032384        0.2400062970        1.6195836709
 H         -2.6012712731        2.5081456201        1.0715219100
 H         -1.1979500969        3.6591269570        2.5080495309
 H          1.1196605384        4.2318882343        3.1287550633
 H          3.0125536048        3.2177513538        1.9257108936
 H          3.7682714579        1.4188524544        0.5270531078
 C          3.3637702298        2.3281180705       -1.3616304352
 C          4.2936554738        3.4821395481       -1.1406050275
 C          4.7809412003        2.2503242009       -1.8411788540
 H          4.9646676218        2.2920242191       -2.9038655185
 H          5.4514394190        1.5918864110       -1.3082633328
 H          4.1435467861        4.3789049537       -1.7215126192
 H          4.6449562231        3.6619229368       -0.1361689434
 H          2.5926039151        2.4384540647       -2.1125323800
