  62
        -98.94135999
 C          1.8061005396        0.9829644396        0.7120139101
 C          2.0280757195       -0.4087779805        0.8928543798
 C          3.4016508096       -0.8866562304        0.6948640600
 C          4.3630515197       -0.0005197704        0.3788751905
 C          5.7974146898       -0.3479051603        0.1068417108
 C          6.0305138602       -0.6184538099       -1.3860166692
 C          5.0207759603       -1.5865942498       -2.0025356597
 H          4.0319259303       -1.1220545398       -1.9964401198
 H          5.3025524806       -1.7275063595       -3.0483212296
 C          4.9431911701       -2.9519862999       -1.3051254300
 H          4.9298679603       -3.7335832698       -2.0676799202
 H          5.8350530800       -3.1085029601       -0.6972465398
 C          3.6977451199       -3.1528202402       -0.4394806204
 H          2.8051050801       -2.9031028900       -1.0185624506
 H          3.6334453598       -4.2124966702       -0.1786243107
 C          3.6598555995       -2.3565648605        0.8710979997
 H          4.5845257794       -2.5207037006        1.4282707800
 H          2.8257271494       -2.7371315206        1.4675426694
 H          5.9673148703        0.3303984902       -1.9237954790
 H          7.0403407502       -1.0133518099       -1.5118134190
 H          6.4195687497        0.4937004696        0.4160460112
 H          6.0705417596       -1.2234369104        0.6926758907
 O          4.1195036797        1.3236963297        0.2252198708
 C          2.8423911097        1.8501171196        0.3650165406
 O          2.7928983597        3.0787383297        0.1567897809
 O          1.1138255794       -1.2139859406        1.2146085293
 C          0.3810368795        1.4647426995        0.9158265598
 C         -0.3721287401        1.5857494298       -0.3876030304
 C          0.0594512002        2.4289657001       -1.4059188201
 C         -0.6716471395        2.5409788704       -2.5742575802
 C         -1.8522968195        1.8377385704       -2.7399465907
 C         -2.2928415697        0.9942049302       -1.7273580411
 C         -1.5424227501        0.8633927699       -0.5673011709
 H         -1.8799614403        0.1933171297        0.2083910989
 N         -3.4786546397        0.2604118302       -1.8641085216
 S         -4.4799175801        0.0290666099       -0.5424134919
 O         -5.7771140799       -0.2527261600       -1.1191324723
 O         -4.4195926303        1.1449004197        0.3721099884
 C         -3.8612468103       -1.4469882203        0.2354025879
 C         -3.6091322707       -1.4500633107        1.5926763680
 C         -3.1463334008       -2.6133171808        2.1867225978
 C         -2.9456247706       -3.7477472206        1.4161991576
 C         -3.2074317902       -3.7297244003        0.0545976175
 C         -3.6718295301       -2.5703022801       -0.5446311023
 H         -3.8887602098       -2.5191607499       -1.5985142624
 H         -3.0482892201       -4.6146625201       -0.5403831327
 H         -2.5809179907       -4.6502893907        1.8806210475
 H         -2.9394008611       -2.6282541611        3.2448987879
 H         -3.7716353308       -0.5430957408        2.1541796582
 H         -4.0011856595        0.4449471604       -2.7078310017
 H         -2.4290691692        1.9398715506       -3.6468142009
 H         -0.3256999793        3.1948310006       -3.3607965100
 H          0.9705374901        2.9917185001       -1.2718795697
 H         -0.1065051006        0.6720634394        1.5000012995
 C          0.2680859793        2.7641401093        1.6913527901
 C         -1.0684073108        3.1531752692        2.2470176198
 C          0.0313008289        2.7221256590        3.1695601700
 H          0.5069435187        3.4680639188        3.7885719203
 H         -0.0459539112        1.7513013288        3.6370106297
 H         -1.3460880608        4.1961431792        2.2312393600
 H         -1.8982671908        2.4816071992        2.0798306494
 H          0.9015676794        3.5524742794        1.3066028705
