  62
        -98.93971679
 C          2.4903088066        0.9772891550       -0.0714547473
 C          3.6929523696        1.0764515010        0.6676432233
 C          4.8936417888        0.5365225506        0.0165928105
 C          4.7891825958       -0.0005324047       -1.2129923551
 C          5.9199159445       -0.6344224831       -1.9693972097
 C          6.0041098621       -2.1405630776       -1.6850586363
 C          5.9706107525       -2.4913591729       -0.1975511101
 H          4.9916976846       -2.2264436552        0.2089633810
 H          6.0674341995       -3.5762863349       -0.1169285547
 C          7.0667044130       -1.8164782906        0.6389301848
 H          7.5038169141       -2.5602982183        1.3084271982
 H          7.8642387454       -1.4600144706       -0.0139047266
 C          6.5760390927       -0.6626257904        1.5154123256
 H          7.3738032710       -0.4059817616        2.2175497467
 H          5.7158574948       -0.9905673859        2.1047702688
 C          6.1898505691        0.6226592411        0.7725060932
 H          6.0482694395        1.4082357359        1.5205881258
 H          7.0036453978        0.9226843754        0.1093296642
 H          6.9233089413       -2.5252031161       -2.1306380385
 H          5.1584254091       -2.6325162522       -2.1711814659
 H          6.8533726565       -0.1487642180       -1.6916971796
 H          5.7458029432       -0.4848421733       -3.0362193113
 O          3.6182280215       -0.0683254040       -1.8962151132
 C          2.4381845220        0.4077380464       -1.3436244488
 O          1.4384149166        0.2739251414       -2.0738063874
 O          3.7580790101        1.5899499790        1.8174331800
 C          1.2056503934        1.5018950581        0.5439296277
 C          0.2017565305        0.3818689418        0.6657819287
 C          0.5844485813       -0.7885254914        1.3167650573
 C         -0.2951778515       -1.8448100284        1.4495306720
 C         -1.5779387526       -1.7600762846        0.9364860289
 C         -1.9747109743       -0.5946943990        0.2967855538
 C         -1.0898495967        0.4713221752        0.1737723983
 H         -1.4132152201        1.3698286701       -0.3279908360
 N         -3.2693683939       -0.5021599845       -0.2422542307
 S         -4.5491769527       -1.1368814119        0.6569140003
 O         -4.4488752531       -0.7089819151        2.0345505697
 O         -4.5993938652       -2.5617786384        0.4441604844
 C         -5.9384266935       -0.3570835092       -0.1408671297
 C         -6.4963856811        0.7752210021        0.4215906480
 C         -7.5596009493        1.3886884296       -0.2222210866
 C         -8.0415517240        0.8640473980       -1.4119856266
 C         -7.4708705258       -0.2733433107       -1.9640791170
 C         -6.4084128862       -0.8924191701       -1.3252366457
 H         -5.9392725704       -1.7818988967       -1.7122422577
 H         -7.8501076605       -0.6789630624       -2.8881169245
 H         -8.8689737428        1.3432533509       -1.9110212937
 H         -8.0072848937        2.2713050690        0.2054672858
 H         -6.0944425613        1.1429424786        1.3520856651
 H         -3.4791658053        0.4270292252       -0.5802557568
 H         -2.2744218116       -2.5776642142        1.0303131158
 H          0.0183431497       -2.7462517490        1.9551455957
 H          1.5871253970       -0.8585660337        1.7169665592
 H          1.4794453079        1.8246266614        1.5595069972
 C          0.7011165622        2.7026105477       -0.2278583810
 C         -0.1490676213        3.7330378249        0.4521770621
 C          1.2680372313        4.0535424272        0.0855026893
 H          1.4493925283        4.7380247441       -0.7294831189
 H          2.0026606467        4.1114059326        0.8752586979
 H         -0.9404993018        4.2037864903       -0.1114949238
 H         -0.3806740430        3.5794541107        1.4954075754
 H          0.5002042538        2.4741853256       -1.2686661844
