  62
        -98.94482458
 C          2.1113967799        1.0086149131        0.4655153098
 C          2.1945939623        0.2166992925       -0.7058582939
 C          2.8781574525       -1.0765906345       -0.5560376243
 C          3.3152073604       -1.4565569465        0.6580536893
 C          4.0648257066       -2.7249339104        0.9433574557
 C          5.5812894518       -2.5138099071        0.8299170898
 C          6.0126399910       -1.8065980576       -0.4547957062
 H          5.6284829943       -0.7841312699       -0.4444101002
 H          7.1026175720       -1.7414420662       -0.4390133642
 C          5.5604877575       -2.5035270425       -1.7455790205
 H          5.2862290138       -3.5372643526       -1.5322422125
 H          6.4002033883       -2.5278667061       -2.4431532676
 C          4.4022848300       -1.8117673158       -2.4670126087
 H          4.3085861336       -2.2537750342       -3.4623916253
 H          4.6338756193       -0.7520531749       -2.5994549764
 C          3.0312636705       -1.9234365890       -1.7878250771
 H          2.2767133576       -1.5614062512       -2.4925922509
 H          2.8129739864       -2.9700390723       -1.5645341493
 H          5.9106506412       -1.9116292257        1.6798035641
 H          6.0697651364       -3.4877784932        0.8937087802
 H          3.8252833584       -3.0443954901        1.9592266764
 H          3.7400275668       -3.4953947625        0.2465243720
 O          3.1566691527       -0.6972329860        1.7731794988
 C          2.5541506850        0.5482868608        1.7047189060
 O          2.4639773419        1.1362724882        2.8032729450
 O          1.7289467816        0.5693422556       -1.8199196621
 C          1.4296312961        2.3667949359        0.4227736752
 C         -0.0288801462        2.1591842132        0.0925243429
 C         -0.6722236038        2.7361082961       -0.9931113436
 C         -2.0027987080        2.4503894717       -1.2500090227
 C         -2.7173928047        1.5932694797       -0.4334353713
 C         -2.0843012164        1.0177786595        0.6609042445
 C         -0.7554189689        1.3079050497        0.9173967276
 H         -0.2603186938        0.8521373957        1.7675010403
 N         -2.8076479601        0.1340310533        1.4959894002
 S         -3.1952653241       -1.3440654387        0.7825732989
 O         -3.4301202678       -2.2503964261        1.8862854406
 O         -2.1897569746       -1.7481148513       -0.1750023077
 C         -4.7363566929       -1.0147099755       -0.0438898538
 C         -4.8054226809       -1.0795293305       -1.4215937177
 C         -6.0148762332       -0.8105974335       -2.0436878009
 C         -7.1259182996       -0.4834564355       -1.2811933561
 C         -7.0396860979       -0.4249505105        0.1020749343
 C         -5.8342832426       -0.6936331640        0.7305629227
 H         -5.7223908107       -0.6654281578        1.8015606203
 H         -7.9059717332       -0.1707423818        0.6912089858
 H         -8.0648975635       -0.2732383576       -1.7684779413
 H         -6.0837375675       -0.8558338210       -3.1186676887
 H         -3.9126773891       -1.3315865995       -1.9715045458
 H         -2.3296468038       -0.0491456339        2.3682604909
 H         -3.7525674478        1.3683393991       -0.6318349491
 H         -2.4889724930        2.9002656535       -2.1020228223
 H         -0.1285219342        3.3974690140       -1.6470486579
 H          1.4911594818        2.7681625404        1.4447423032
 C          2.1489015317        3.3086727428       -0.5177319677
 C          2.0207721836        4.7899561633       -0.3321033203
 C          3.3100795163        4.1018713428       -0.0011566346
 H          4.1595050191        4.2539864947       -0.6499736909
 H          3.5735963084        3.9777394335        1.0394266033
 H          1.9872286687        5.4188128347       -1.2086536153
 H          1.4090860441        5.1392034964        0.4858706095
 H          2.2188646319        2.9208997053       -1.5268925587
