  62
        -98.94407241
 C          2.4302948087       -1.0983632678       -0.2706710517
 C          2.4587027236        0.2373958299        0.1974536905
 C          3.5643063833        1.0629161335       -0.3059573626
 C          4.4518802494        0.5404784062       -1.1717330555
 C          5.6195955934        1.2616939572       -1.7885519522
 C          6.8714303184        1.2967818356       -0.9011314520
 C          6.7890820523        2.2350359941        0.3035418067
 H          7.7994821770        2.3283440396        0.7065332226
 H          6.4787396076        3.2259452555       -0.0294032244
 C          5.8556606602        1.7501140141        1.4215557512
 H          5.6515182936        0.6850686686        1.2898442940
 H          6.3540384964        1.8636495270        2.3869189565
 C          4.5263754437        2.5002910843        1.5081117440
 H          4.7103654149        3.5445257539        1.7707008053
 H          3.9307554175        2.0526716968        2.3079014705
 C          3.6936944321        2.4606243118        0.2199924392
 H          2.6880143424        2.8231074305        0.4485899166
 H          4.1358525842        3.1119551890       -0.5337844191
 H          7.0852426858        0.2818119061       -0.5585198950
 H          7.7058832272        1.6185969170       -1.5283663854
 H          5.8646134621        0.7255386147       -2.7078999199
 H          5.3264904446        2.2795008505       -2.0474722496
 O          4.3739329537       -0.7422940777       -1.6155449456
 C          3.3740117226       -1.5918358050       -1.1722332725
 O          3.4273151863       -2.7426353629       -1.6509093101
 O          1.6109141192        0.7194021533        0.9942398204
 C          1.3356624370       -2.0465779952        0.1885393676
 C         -0.0027784096       -1.4892421007       -0.2307680503
 C         -0.2493365089       -1.3102690967       -1.5901260229
 C         -1.4449834625       -0.7746565899       -2.0262605517
 C         -2.4220866730       -0.4028529769       -1.1180124151
 C         -2.1824053308       -0.5665667849        0.2384157073
 C         -0.9831645823       -1.1195059494        0.6739074832
 H         -0.8123162075       -1.2367748597        1.7323169751
 N         -3.1673377821       -0.2041046376        1.1694172869
 S         -4.0407929287        1.2096155927        0.9532769303
 O         -3.2740540744        2.2257183297        0.2711666550
 O         -4.5284095301        1.5484931204        2.2727808395
 C         -5.4182889317        0.7017085633       -0.0564907706
 C         -6.1442839562       -0.4063361741        0.3344753772
 C         -7.2251062180       -0.8042289273       -0.4359497190
 C         -7.5631557366       -0.0895843612       -1.5755269875
 C         -6.8273933458        1.0233124851       -1.9523282081
 C         -5.7439254209        1.4255066537       -1.1867336609
 H         -5.1390836942        2.2803463562       -1.4452090075
 H         -7.0914544285        1.5784513476       -2.8381254666
 H         -8.4047423418       -0.4015422180       -2.1736069324
 H         -7.7993752339       -1.6695233546       -0.1464916480
 H         -5.8515267114       -0.9336501870        1.2268339056
 H         -2.8829192305       -0.3134565717        2.1319773832
 H         -3.3519358241        0.0275473894       -1.4516415191
 H         -1.6206256911       -0.6419762197       -3.0831426859
 H          0.5186918506       -1.5911362187       -2.2984476304
 H          1.4993364704       -2.9859716010       -0.3579692364
 C          1.4582043921       -2.3187690068        1.6727268706
 C          0.8533090631       -3.5586129780        2.2577731386
 C          2.3418180464       -3.4367166502        2.1345515116
 H          2.9251697980       -3.2950540638        3.0320856964
 H          2.8443149382       -4.0183757703        1.3754430659
 H          0.4156099924       -3.5053206813        3.2432479410
 H          0.3426277956       -4.2292292683        1.5836126291
 H          1.4510526206       -1.4133357429        2.2688661609
