  62
        -98.93984526
 C         -1.5041703435       -1.4798310990        0.2891074323
 C         -1.5600891319       -0.4642987380       -0.6916486672
 C         -2.4670835533        0.6738406104       -0.4257976868
 C         -3.1475774825        0.7094608160        0.7349096663
 C         -4.1254305390        1.7463857412        1.2215089301
 C         -5.4977978917        1.6336346739        0.5408384216
 C         -5.4455411534        1.4572104592       -0.9740136347
 H         -4.8865903030        0.5500338904       -1.2101821517
 H         -6.4694186024        1.3073625973       -1.3265062245
 C         -4.8536968372        2.6352728181       -1.7447653855
 H         -5.4210001683        3.5386843589       -1.5106501249
 H         -4.9899443669        2.4261374525       -2.8089741445
 C         -3.3674550931        2.9152387602       -1.5057730969
 H         -3.0285926003        3.5772197094       -2.3080828498
 H         -3.2105577374        3.4561966467       -0.5762880713
 C         -2.4742253702        1.6796681385       -1.5531944886
 H         -2.6958187222        1.1134248159       -2.4654108212
 H         -1.4338782033        2.0073993996       -1.6681980457
 H         -6.0781920750        2.5246411007        0.7863306129
 H         -6.0152955242        0.7676153357        0.9607708767
 H         -4.2542773911        1.5737285792        2.2922749207
 H         -3.7144000382        2.7433137415        1.0934317099
 O         -3.0442719413       -0.2837522576        1.6631432682
 C         -2.2440741978       -1.3888433992        1.4721335880
 O         -2.2699727533       -2.2118456786        2.4077906345
 H          1.1478310466       -1.5942915751       -1.6094490005
 C          1.5636394501       -1.6732223852       -0.6176172903
 C          0.8151285412       -2.2495771842        0.3973095905
 C          1.3603209834       -2.3061294115        1.6762742962
 C          2.6219797400       -1.7982940729        1.9298176001
 C          3.3542999850       -1.1970822415        0.9207528631
 C          2.8099446475       -1.1243690721       -0.3543551405
 N          3.5073338661       -0.4377189788       -1.3672739294
 S          4.0231375758        1.1027099202       -0.9569783231
 O          3.9593406783        1.8760650675       -2.1778073726
 O          5.3267870220        1.0179536998       -0.3449299762
 C          2.8515206645        1.7217040916        0.2440985372
 C          1.5016980757        1.6924578995       -0.0472856340
 C          0.6040212151        2.1628254580        0.8976736169
 C          1.0651283167        2.6592200198        2.1069198079
 C          2.4233342009        2.6896747304        2.3809928829
 C          3.3255205288        2.2134069001        1.4436460529
 H          4.3889677587        2.2063691326        1.6196712827
 H          2.7800380450        3.0762793360        3.3219808118
 H          0.3584871270        3.0203223704        2.8374936875
 H         -0.4539858826        2.1246968692        0.6885222275
 H          1.1541131204        1.2954090880       -0.9886089099
 H          3.0061912789       -0.4175575695       -2.2446390136
 H          4.3280800726       -0.7712276500        1.1027194551
 H          3.0339439542       -1.8564542877        2.9255952396
 H          0.7734991434       -2.7350796094        2.4759895769
 C         -0.6045478626       -2.7011724837        0.1573029137
 H         -0.8915332647       -3.3720852755        0.9771587760
 C         -0.7943493385       -3.4324743674       -1.1552206295
 C         -0.2547112567       -4.8230549217       -1.2956490311
 C         -1.7338924129       -4.5976280204       -1.2135082115
 H         -2.3280284006       -4.7360443297       -2.1044606265
 H         -2.2435302131       -4.8763341514       -0.3025900630
 H          0.2405400914       -5.2538542438       -0.4385779234
 H          0.1693052012       -5.1192190627       -2.2428815582
 H         -0.7594611852       -2.7877141933       -2.0234580402
 O         -0.8972317585       -0.4771716519       -1.7638562687
