  62
        -98.93950319
 C         -2.2792637337       -0.8810592129        0.6375707570
 C         -3.4269405244       -0.9044927646       -0.1927640518
 C         -4.4582939799        0.1016751715        0.1060822255
 C         -4.2650916984        0.9762574050        1.1087660343
 C         -5.2061691605        2.0860816488        1.4761981071
 C         -4.8628429595        3.3802848642        0.7253915914
 C         -4.6742169870        3.1908522469       -0.7798344024
 H         -4.4670783044        4.1744537880       -1.2071092387
 H         -3.7891560796        2.5737247969       -0.9525114464
 C         -5.8779323862        2.5642710217       -1.4974280226
 H         -6.0666076113        3.1228491939       -2.4165664048
 H         -6.7684611939        2.6548404875       -0.8744942108
 C         -5.6856992020        1.1002785642       -1.8968915363
 H         -6.4934633652        0.8255384377       -2.5803334160
 H         -4.7442161361        0.9896027536       -2.4406108342
 C         -5.6979049794        0.0884361741       -0.7443717747
 H         -6.5868608394        0.2412696165       -0.1293999816
 H         -5.7495870262       -0.9124924397       -1.1822168138
 H         -5.6587316568        4.1050936739        0.9061607846
 H         -3.9349707352        3.7836470549        1.1379618067
 H         -5.1219455856        2.2658078269        2.5493116125
 H         -6.2253996332        1.7806874536        1.2474932054
 O         -3.1500963183        0.9727730559        1.8842630466
 C         -2.1408928816        0.0506756002        1.6714843268
 O         -1.1846165689        0.1525558933        2.4682543587
 O         -3.6089619723       -1.7147665990       -1.1392537828
 C         -1.1202987666       -1.8543100368        0.4860829092
 C         -0.1842957216       -1.4307159131       -0.6212280297
 C         -0.5931188023       -1.3991509038       -1.9505268694
 C          0.2890475354       -1.0115101763       -2.9421029252
 C          1.5886797912       -0.6527588628       -2.6314672109
 C          2.0098130281       -0.6884783963       -1.3069223733
 C          1.1211877278       -1.0748142499       -0.3132279487
 H          1.4515061926       -1.0784655076        0.7149113908
 N          3.3413830208       -0.3789994067       -0.9782879333
 S          3.6871437174        0.3799098191        0.4887192751
 O          3.6054321806       -0.5944357850        1.5473597264
 O          2.8813447301        1.5717762261        0.6368036744
 C          5.3949325289        0.8127177593        0.2115967031
 C          6.3479865395       -0.1835342872        0.3122831869
 C          7.6756166991        0.1325811374        0.0728443074
 C          8.0268897312        1.4323062246       -0.2612846057
 C          7.0600190970        2.4217045371       -0.3562564916
 C          5.7296501419        2.1117628276       -0.1195493110
 H          4.9446647198        2.8489140398       -0.1744289670
 H          7.3362478092        3.4317396639       -0.6128205396
 H          9.0611325583        1.6761986250       -0.4459462444
 H          8.4303261323       -0.6334668348        0.1485005607
 H          6.0284999104       -1.1760007760        0.5839522611
 H          3.8322597158        0.0705287033       -1.7397960290
 H          2.2748003984       -0.3506162482       -3.4082667375
 H         -0.0403533039       -0.9847260791       -3.9699366586
 H         -1.6098737312       -1.6660930483       -2.1936899700
 H         -0.5597899650       -1.7914738894        1.4294538037
 C         -1.5651807685       -3.2916446554        0.2919947735
 C         -0.6011432855       -4.3924649182        0.6113222693
 C         -1.7897434463       -4.1565548506        1.4934850591
 H         -2.6009276068       -4.8686008934        1.4709274482
 H         -1.6238176205       -3.7139135650        2.4654397314
 H         -0.5937603692       -5.2692407461       -0.0176362331
 H          0.3718342769       -4.1098517089        0.9857542912
 H         -2.2288925037       -3.4281462031       -0.5509861559
