  62
        -98.94541653
 C         -2.5932785078       -0.0397977150       -0.5066851392
 C         -2.4966932534       -0.7628684607        0.7067364984
 C         -2.0800279754       -2.1638907191        0.5822103326
 C         -1.7948609558       -2.6716291664       -0.6302774108
 C         -1.3180970625       -4.0699651897       -0.9139957649
 C          0.1923294787       -4.2527147549       -0.7072019242
 C          0.6478699270       -4.3183178380        0.7515810720
 H          0.0280823056       -5.0323131461        1.2956008270
 H          1.6682859152       -4.7067012920        0.7479189151
 C          0.6422909273       -2.9653850417        1.4768843163
 H          0.6376705984       -2.1576249296        0.7410185137
 H          1.5646218624       -2.8624678507        2.0543489566
 C         -0.5168785469       -2.7673947192        2.4540246306
 H         -0.4597805150       -1.7494147707        2.8481882837
 H         -0.4117744718       -3.4620360241        3.2912654997
 C         -1.9098378331       -2.9580064879        1.8424074808
 H         -2.0962933352       -4.0147342643        1.6516436950
 H         -2.6485193442       -2.5948229159        2.5616910977
 H          0.7137812314       -3.4336848810       -1.2097189623
 H          0.4780907521       -5.1856116380       -1.1993606631
 H         -1.5512210988       -4.2718210974       -1.9617162065
 H         -1.8635496582       -4.7809341824       -0.2924442788
 O         -1.9225025165       -1.9500806266       -1.7765735329
 C         -2.2899726268       -0.6155269085       -1.7391521838
 O         -2.3228615452       -0.0584288675       -2.8581833587
 O         -2.7403154889       -0.2657304565        1.8374818390
 C         -2.8830449300        1.4498867389       -0.4715178782
 C         -1.7865418064        2.1357252764        0.3117784763
 C         -2.0079215702        3.1725901380        1.2078324667
 C         -0.9465540537        3.7334886950        1.8990136789
 C          0.3445232270        3.2725901698        1.7213986123
 C          0.5762373473        2.2327906025        0.8254852531
 C         -0.4832826863        1.6965626710        0.1157786565
 H         -0.2930809202        0.9057838594       -0.5948088374
 N          1.8634967392        1.6925745761        0.6694775700
 S          2.2729002257        0.8096078189       -0.7037155284
 O          2.0939737383        1.6195055660       -1.8903332255
 O          1.5924576153       -0.4598186594       -0.6816860450
 C          4.0085716386        0.5618234187       -0.3845328829
 C          4.3824213448       -0.4775891061        0.4458958355
 C          5.7267953919       -0.6583829018        0.7292509051
 C          6.6693953290        0.1991818966        0.1813494589
 C          6.2794396895        1.2361332421       -0.6528010158
 C          4.9361250293        1.4229133353       -0.9394233744
 H          4.5866744142        2.2084791050       -1.5900096224
 H          7.0148067430        1.8985148145       -1.0801613651
 H          7.7150836198        0.0562093384        0.4033942770
 H          6.0336126136       -1.4654499034        1.3746935669
 H          3.6130996871       -1.1216863630        0.8396681859
 H          2.6032248921        2.3217144495        0.9481230649
 H          1.1651455334        3.7005545032        2.2762362822
 H         -1.1303265787        4.5392663001        2.5934933846
 H         -3.0093280707        3.5366580401        1.3699869412
 H         -2.8254300675        1.7978695691       -1.5144443879
 C         -4.2720879799        1.7260136201        0.0635410103
 C         -5.0348051389        2.9301824798       -0.3987021317
 C         -5.4450582737        1.5630117073       -0.8541591234
 H         -6.3539505459        1.1356519171       -0.4584490103
 H         -5.2370316908        1.2781686342       -1.8756884128
 H         -5.6679128113        3.4429802346        0.3095813875
 H         -4.5574615668        3.5792056092       -1.1175716070
 H         -4.3909123697        1.4039612579        1.0913539628
