  62
        -98.93578045
 C         -1.6343760990       -1.7059398405        0.1537247195
 C         -2.3604391696       -0.8822759109        1.0507996794
 C         -3.3513301802        0.0420440784        0.4710267592
 C         -3.5211574301        0.0671879181       -0.8637399208
 C         -4.4823994706        0.8444779274       -1.7395337209
 C         -5.3309677213        1.9704086869       -1.1555537211
 C         -4.5438485922        3.2230592875       -0.7689473612
 H         -4.2218470825        3.7240862576       -1.6855143112
 H         -5.2143301927        3.9018447471       -0.2379135913
 C         -3.2995832821        2.9815465984        0.0818984189
 H         -2.6047901416        2.3433871588       -0.4687224010
 H         -2.8082757127        3.9469739687        0.2327553588
 C         -3.5577381217        2.3689103984        1.4567997290
 H         -2.6139491518        2.3741462291        2.0088524590
 H         -4.2689574022        2.9888123780        2.0060546289
 C         -4.0779449108        0.9225338680        1.4474156391
 H         -3.8961391106        0.4925184483        2.4367180692
 H         -5.1504414508        0.8915141973        1.2711610290
 H         -5.9110978211        1.6031744966       -0.3140646811
 H         -6.0467946015        2.2570065563       -1.9306921412
 H         -3.8866501908        1.2368821577       -2.5702532309
 H         -5.1526714900        0.0940396269       -2.1731820109
 O         -2.7873094895       -0.7323341315       -1.6911767706
 C         -1.8283272190       -1.6209144208       -1.2237051005
 O         -1.2451370485       -2.2410428505       -2.1330728604
 H          0.7549302410       -1.5355184091       -1.2374838203
 C          1.3068047309       -1.5183175686       -0.3088428503
 C          0.7400807812       -2.0768957589        0.8288902397
 C          1.4628693211       -2.0460289583        2.0152947797
 C          2.7259930708       -1.4801900574        2.0572737298
 C          3.2898260405       -0.9294730272        0.9207486297
 C          2.5700445705       -0.9471631678       -0.2676649503
 N          3.1225025902       -0.3651351176       -1.4225088504
 S          3.7806568192        1.1648169829       -1.2547785205
 O          3.6048410589        1.8043270826       -2.5396136806
 O          5.1416929993        1.0521014839       -0.7923370104
 C          2.7934667386        1.9767809524       -0.0083210106
 C          3.3973604782        2.4700542629        1.1302251293
 C          2.6126109278        3.0811860625        2.0951346792
 C          1.2431710877        3.1831403016        1.9076606491
 C          0.6510987081        2.6839430511        0.7575658192
 C          1.4311798685        2.0757378915       -0.2119260807
 H          0.9958429689        1.6805126511       -1.1167770607
 H         -0.4152838520        2.7582889904        0.6154342491
 H          0.6298645573        3.6528029413        2.6603705490
 H          3.0695556774        3.4715075629        2.9900977992
 H          4.4645378983        2.3633178536        1.2373688594
 H          2.5164544003       -0.4166416380       -2.2285530404
 H          4.2728410502       -0.4870665865        0.9318994397
 H          3.2768138007       -1.4653031669        2.9849784598
 H          1.0228614114       -2.4573954084        2.9115736498
 C         -0.6417944484       -2.6757121598        0.7718848897
 H         -0.9878042684       -2.8010217999        1.8098728197
 C         -0.6673698874       -4.0506743099        0.1177465699
 C          0.4516172630       -4.6012502792       -0.7095788200
 C          0.1943674933       -5.1531925892        0.6585723200
 H         -0.2261564961       -6.1430711795        0.7497645401
 H          0.8965369130       -4.8960845987        1.4373261200
 H          0.1886083234       -5.1954939995       -1.5715231500
 H          1.3301044626       -3.9930913587       -0.8575493300
 H         -1.6695400372       -4.3275111906       -0.1948310302
 O         -2.1988579896       -0.9303557106        2.2987418394
