  62
        -98.93536794
 C         -2.0241540508       -0.4069463204       -0.1132120610
 C         -3.1122202008       -1.1152085101        0.4553696494
 C         -4.3380003408       -0.3489896499        0.7396355789
 C         -4.3628106708        0.9710936900        0.4796782081
 C         -5.4402575908        2.0124184401        0.7001397775
 C         -6.8722501708        1.5978494203        1.0278553177
 C         -7.6127448808        0.9013124097       -0.1135299519
 H         -8.5790092908        0.5596232999        0.2637799282
 H         -7.8039305607        1.6345349292       -0.9012493724
 C         -6.8824823708       -0.2783314407       -0.7505138312
 H         -5.9566774707        0.0706242190       -1.2126185214
 H         -7.5145438007       -0.6691315011       -1.5526157410
 C         -6.5618098108       -1.4353273102        0.1935461894
 H         -6.1911024608       -2.2644209005       -0.4153818301
 H         -7.4754870908       -1.7686348399        0.6894148496
 C         -5.5011520208       -1.1387747696        1.2675487393
 H         -5.9403209609       -0.6444250791        2.1308175390
 H         -5.0917498909       -2.0936310094        1.6101907799
 H         -7.4164243508        2.5172125505        1.2608685372
 H         -6.8910646308        0.9862729008        1.9251122180
 H         -5.4446605807        2.6326735796       -0.2020438828
 H         -5.0706268408        2.6520566406        1.5093633072
 O         -3.2764350008        1.6198035897       -0.0304148522
 C         -2.0903710008        0.9674878895       -0.3401426718
 O         -1.2130024007        1.7217730592       -0.7983480422
 O         -3.0601980608       -2.3443508999        0.7269657801
 C         -0.7541612908       -1.1902513906       -0.3975314105
 C          0.4310698992       -0.4775056903        0.2004424091
 C          0.5916043792       -0.4821633795        1.5832189591
 C          1.6443143192        0.1887505408        2.1758182288
 C          2.5617527392        0.8770893704        1.4017314084
 C          2.4130237192        0.8835434496        0.0213094584
 C          1.3604218192        0.1990090993       -0.5731882212
 H          1.2429473193        0.2330380187       -1.6449154813
 N          3.3401625293        1.5784640191       -0.7690736020
 S          4.9631993593        1.4750650793       -0.3947479519
 O          5.2785739792        2.3733527199        0.6884661676
 O          5.6552000693        1.7229502386       -1.6403378720
 C          5.2138455792       -0.2120996504        0.1314886791
 C          4.9143142992       -1.2235124709       -0.7598574003
 C          5.0761541392       -2.5396194207       -0.3594992996
 C          5.5323092291       -2.8212605899        0.9193958406
 C          5.8337506191       -1.7949977295        1.8006808400
 C          5.6719734792       -0.4764405197        1.4058575893
 H          5.8925624092        0.3516345207        2.0596724788
 H          6.1904983191       -2.0165569189        2.7936101802
 H          5.6539809691       -3.8471763798        1.2292764312
 H          4.8438193392       -3.3400775211       -1.0434488391
 H          4.5680136893       -0.9708325215       -1.7490766305
 H          3.1679326993        1.5263333286       -1.7612966619
 H          3.3755519092        1.4259162706        1.8471845981
 H          1.7508640791        0.1816995314        3.2499429588
 H         -0.1310940509       -1.0101746691        2.1901358294
 H         -0.8944174308       -2.1351620703        0.1523139600
 C         -0.5548686707       -1.5693324114       -1.8571882303
 C         -1.7301078007       -1.8930212719       -2.7290378602
 C         -0.9154477107       -0.6645877621       -2.9959140108
 H         -0.2734312207       -0.6575376026       -3.8653339608
 H         -1.3394089607        0.2992016081       -2.7618868814
 H         -1.6523498407       -2.7236338823       -3.4142430397
 H         -2.7148208407       -1.7686361616       -2.3025291603
 H          0.3281778692       -2.1869853115       -1.9919855099
