  62
        -98.94047161
 C         -1.9880670487       -1.2110986520        0.5270814096
 C         -1.9673676628        0.1130361603        1.0402417512
 C         -3.1130133491        0.9640536281        0.7047700646
 C         -4.1228095670        0.4590857645       -0.0262750698
 C         -5.3885754497        1.1773387139       -0.4080667638
 C         -5.2605952339        2.0502164502       -1.6637474662
 C         -4.4500320177        3.3337693339       -1.4808631462
 H         -4.6207806706        3.9501022218       -2.3657772394
 H         -4.8336115590        3.8850442508       -0.6217193447
 C         -2.9402218164        3.1086584680       -1.3196779261
 H         -2.6832998146        2.1028473748       -1.6609994941
 H         -2.3968830203        3.8089497385       -1.9583231568
 C         -2.4176971022        3.2967763660        0.1045087439
 H         -1.3464324750        3.0802384649        0.0993769279
 H         -2.5487875048        4.3378445769        0.4077276085
 C         -3.0872998681        2.3950944688        1.1503970838
 H         -4.0981302254        2.7471031677        1.3555770237
 H         -2.5053204513        2.4456192118        2.0738987375
 H         -4.8186153193        1.4507441555       -2.4631427592
 H         -6.2713075459        2.3244299761       -1.9748216257
 H         -6.1370308758        0.4055521138       -0.6006352677
 H         -5.7279889641        1.7893325289        0.4282350970
 O         -4.1115374410       -0.8141416603       -0.4958663272
 C         -3.0370132570       -1.6670596295       -0.2722238899
 O         -3.1631533337       -2.7716705797       -0.8363354137
 O         -1.0339037969        0.5588019298        1.7578078195
 C         -0.7928934041       -2.0821206450        0.8752359807
 C          0.2765269749       -1.9891980342       -0.1880675359
 C         -0.0183595625       -2.2272154824       -1.5262611049
 C          0.9611136785       -2.1051980311       -2.4951789150
 C          2.2542669985       -1.7525972409       -2.1500425186
 C          2.5622617450       -1.5249402147       -0.8163347982
 C          1.5764633067       -1.6462689518        0.1561334655
 H          1.8193833275       -1.4489315801        1.1916058804
 N          3.8862557054       -1.1665456312       -0.4788009670
 S          4.3946225248        0.3758884689       -0.8975312888
 O          3.9013221379        0.6812352367       -2.2152074130
 O          5.8285921187        0.3894862659       -0.7236795616
 C          3.6440697316        1.4385150732        0.3241191808
 C          2.2724040217        1.6010710355        0.3087267848
 C          1.6746171687        2.3393419242        1.3176544484
 C          2.4564887599        2.9158861890        2.3071223960
 C          3.8341366691        2.7575781287        2.2995936964
 C          4.4352183747        2.0003733369        1.3070325269
 H          5.4997622012        1.8340672288        1.2707406774
 H          4.4380334927        3.2102267232        3.0696489902
 H          1.9838230018        3.4875832421        3.0902023636
 H          0.5999036064        2.4239163087        1.3456350080
 H          1.6884669136        1.1457597911       -0.4759448067
 H          4.1161028709       -1.3384918576        0.4904043041
 H          3.0236112388       -1.6352510132       -2.8953289030
 H          0.7153033942       -2.2871022930       -3.5306681749
 H         -1.0253909684       -2.5035879684       -1.8001663121
 H         -0.3811363577       -1.6488017519        1.7971635981
 C         -1.1404126417       -3.5329889862        1.1436212262
 C         -0.2324792539       -4.3509347406        2.0102508193
 C         -1.5828671642       -3.9410977596        2.5152096068
 H         -2.3542993762       -4.6910025586        2.6037344622
 H         -1.6325983564       -3.1735527096        3.2738540962
 H         -0.0717531593       -5.3862629611        1.7521540128
 H          0.6340020963       -3.8642065453        2.4316134143
 H         -1.6120251643       -4.0244720449        0.3030675174
