  62
        -98.93886293
 C          1.1815651462        1.4412725775        0.6051971933
 C          2.0242967648        1.2363262467       -0.5113383540
 C          3.0874469463        0.2197256007       -0.3566775616
 C          3.1425359424       -0.5131321289        0.7706381968
 C          4.1423394296       -1.5443994452        1.2546660563
 C          5.3003508278       -1.9818799760        0.3624882048
 C          4.8978724187       -2.8993006221       -0.7944294441
 H          5.7468217764       -2.9967989665       -1.4738829357
 H          4.6846603630       -3.8907997031       -0.3870337903
 C          3.6685107372       -2.4579944488       -1.5837202740
 H          3.4237470555       -3.2484693125       -2.2982303554
 H          2.8209723102       -2.3611670762       -0.9052524427
 C          3.8254128616       -1.1575005699       -2.3661521637
 H          2.9169204411       -1.0093778274       -2.9572039593
 H          4.6618466648       -1.2459187743       -3.0627237041
 C          4.0400118710        0.1012424244       -1.5138837700
 H          5.0707201835        0.1670430998       -1.1735555483
 H          3.8510986369        0.9710840479       -2.1503137316
 H          5.8386611329       -1.1102492037        0.0014820427
 H          5.9948360166       -2.5383791484        0.9974115472
 H          4.5569941507       -1.1244701187        2.1775849047
 H          3.5671777659       -2.4253491672        1.5568850817
 O          2.2113718419       -0.3732253480        1.7617800885
 C          1.2339684688        0.5987335267        1.7166975764
 O          0.4798749564        0.6175136248        2.7105482123
 H         -1.8989294608        1.0932509323        1.4964071523
 C         -2.0332762836        1.3753210950        0.4597755891
 C         -1.0610349414        2.1533238376       -0.1572962786
 C         -1.2229903847        2.4813377641       -1.4974191960
 C         -2.3383275047        2.0483331361       -2.1946121697
 C         -3.3110131054        1.2838815688       -1.5744323807
 C         -3.1492647677        0.9408646185       -0.2386232891
 N         -4.1211008080        0.1230244177        0.3875746141
 S         -4.1026716593       -1.4750958382       -0.1150848587
 O         -4.4231617188       -1.5197551336       -1.5180223740
 O         -4.9965032251       -2.1825490147        0.7720368652
 C         -2.4213520242       -2.0061666666        0.1514356912
 C         -2.1088347645       -2.6901856138        1.3088018296
 C         -0.7891051912       -3.0357561249        1.5474171210
 C          0.1921493932       -2.6737616217        0.6383411422
 C         -0.1346289966       -1.9718003703       -0.5109410714
 C         -1.4546763474       -1.6367018980       -0.7624021607
 H         -1.7416651784       -1.1007172062       -1.6524918461
 H          0.6313832669       -1.6712260362       -1.2091131499
 H          1.2200203864       -2.9379099039        0.8316812510
 H         -0.5261601183       -3.5749043206        2.4433139988
 H         -2.9027291256       -2.9467918094        1.9920107507
 H         -4.0539894979        0.1419219688        1.3964837642
 H         -4.1766374069        0.9257956403       -2.1074476399
 H         -2.4519110449        2.3102798135       -3.2356669190
 H         -0.4617780307        3.0565184928       -1.9982727927
 C          0.1469435703        2.5562778579        0.6510453468
 H         -0.1685687189        2.6174259492        1.7016551318
 C          0.7230287642        3.8967888031        0.2453676036
 C         -0.0386264319        5.1434249157        0.5771616645
 C          1.2317656584        4.8248133428        1.3053442290
 H          2.1104995094        5.4154775457        1.0939375943
 H          1.1633446162        4.4992196172        2.3333765837
 H         -0.0348201802        5.9553581892       -0.1335921618
 H         -0.9706640548        5.0312020264        1.1106230389
 H          1.2686167149        3.8708732170       -0.6883680347
 O          1.9338480853        1.8842425105       -1.5857125924
