  62
        -98.94416568
 C         -1.8640586194       -0.8422910998       -0.4888411405
 C         -3.0077137594       -1.3649480993        0.1665334200
 C         -4.2815507494       -0.7034868896       -0.1331684306
 C         -4.3099690995        0.3256375196       -0.9991388715
 C         -5.5337580695        1.0883874992       -1.4289049022
 C         -5.9361453095        2.2144933900       -0.4669082333
 C         -6.5493180795        1.7510206812        0.8550700372
 H         -6.9803521795        2.6323456817        1.3341910264
 H         -7.3667837995        1.0586703210        0.6514637378
 C         -5.5503272295        1.1017254522        1.8230945978
 H         -5.6969194295        1.5105571831        2.8253679774
 H         -4.5316889995        1.3561658919        1.5204992175
 C         -5.6693620694       -0.4185042477        1.9322808492
 H         -4.8934978594       -0.7737985071        2.6149893095
 H         -6.6399421294       -0.6801730474        2.3593922494
 C         -5.5052964594       -1.1629027990        0.6005983699
 H         -5.3848193994       -2.2274910587        0.8150549309
 H         -6.3925552494       -1.0284521896       -0.0175839002
 H         -6.6685041196        2.8387497595       -0.9841380938
 H         -5.0573197996        2.8316024303       -0.2653708338
 H         -5.2980160895        1.5318504283       -2.3987788726
 H         -6.3695578695        0.3997177590       -1.5555087616
 O         -3.1930984395        0.7913913291       -1.6171926520
 C         -1.9421847295        0.2417560194       -1.3633847915
 O         -1.0154145195        0.7990643088       -1.9810589820
 H          1.3982913405        0.3782149099       -0.9269093816
 C          1.2142223305        0.3486112709        0.1335006984
 C          0.2833763706       -0.5306477387        0.6657129992
 C          0.0331680106       -0.4931129174        2.0360609792
 C          0.6965379306        0.4026924734        2.8515015284
 C          1.6318108505        1.2725930129        2.3185592275
 C          1.8847474305        1.2494030716        0.9519222876
 N          2.8070997705        2.1469331512        0.3919487167
 S          3.9188418905        1.6603246001       -0.7549736828
 O          4.8686051904        2.7504192301       -0.8120431339
 O          3.2662890705        1.3158262890       -1.9910568625
 C          4.6978623505        0.2226434408       -0.0429353415
 C          4.1877251506       -1.0306749094       -0.3138293104
 C          4.7687683506       -2.1342249489        0.2910081507
 C          5.8432467806       -1.9665246480        1.1506297505
 C          6.3454916006       -0.7002676878        1.4110974793
 C          5.7660725305        0.4070627917        0.8136220983
 H          6.1311649705        1.4076959518        0.9792693574
 H          7.1839223806       -0.5734602771        2.0768553992
 H          6.2932399907       -2.8285159976        1.6173386913
 H          4.3778082107       -3.1182672291        0.0870144116
 H          3.3543403506       -1.1229717701       -0.9900152103
 H          3.2381196005        2.7707245818        1.0585430561
 H          2.1513715805        1.9758229335        2.9516512669
 H          0.4896829106        0.4221418843        3.9107580683
 H         -0.7040977594       -1.1676561971        2.4483523198
 C         -0.5183530994       -1.4834680195       -0.1859964399
 H         -0.7574247694       -2.3632182989        0.4276774209
 C          0.1873972906       -1.9538635406       -1.4392039794
 C          1.2059974906       -3.0487294905       -1.3392629184
 C         -0.1279494294       -3.3214175511       -1.9652240982
 H         -0.1789037994       -3.4627773321       -3.0344886180
 H         -0.8419040193       -3.9146831907       -1.4126175076
 H          1.3987704607       -3.4608901396       -0.3602899981
 H          2.0707501106       -3.0097418811       -1.9845914285
 H          0.3502913106       -1.1701829213       -2.1691553702
 O         -2.9654318594       -2.3423165285        0.9602224209
