  62
        -98.94479548
 C         -2.0489727324        1.3209536154        0.0024300524
 C         -2.6690536298        0.6907185755       -1.1023069617
 C         -3.8519572947       -0.1250196086       -0.7983825498
 C         -4.2654253578       -0.2326971227        0.4778277147
 C         -5.4244815866       -1.0694532487        0.9349201442
 C         -4.9713512290       -2.4849713415        1.3187660961
 C         -4.0885382796       -3.1568762693        0.2669746069
 H         -3.1426077195       -2.6142635296        0.1971013786
 H         -3.8549192950       -4.1600168926        0.6305468718
 C         -4.7235745685       -3.2528036949       -1.1275078402
 H         -4.5506280616       -4.2563120796       -1.5221788755
 H         -5.8028837750       -3.1160500050       -1.0526739277
 C         -4.1582760433       -2.2675725185       -2.1523433441
 H         -3.0674494006       -2.3382719999       -2.1641539129
 H         -4.5147844289       -2.5654271479       -3.1419946867
 C         -4.5454784434       -0.7969872083       -1.9502449713
 H         -5.6293562828       -0.7133792690       -1.8494361943
 H         -4.2401125080       -0.2478053546       -2.8457744156
 H         -4.4067677436       -2.4271299329        2.2523310828
 H         -5.8583566408       -3.0959566644        1.4954251651
 H         -5.8695809322       -0.5912197093        1.8089884121
 H         -6.1674050093       -1.1170542323        0.1411079068
 O         -3.6372415635        0.3772050802        1.5145493246
 C         -2.5080107586        1.1579836203        1.3098379479
 O         -2.0221585238        1.6397365513        2.3495179624
 O         -2.2490928526        0.8008028056       -2.2865955577
 C         -0.8213737647        2.1815412214       -0.2385158093
 C          0.3705336905        1.5834903390        0.4676343085
 C          1.2104237629        2.3028928932        1.3064758334
 C          2.2765325436        1.6795479703        1.9333583199
 C          2.5359430597        0.3374618175        1.7294679382
 C          1.7160112947       -0.3862667173        0.8715906862
 C          0.6495984330        0.2396972276        0.2457463091
 H          0.0089958018       -0.3267232607       -0.4190990080
 N          1.9825362915       -1.7449328525        0.6377058737
 S          3.5719735980       -2.2145768009        0.4112600628
 O          3.5006153446       -3.3971454111       -0.4182669802
 O          4.2160216884       -2.3834806632        1.6901325908
 C          4.3425198921       -0.8719329948       -0.4766068103
 C          3.7997542949       -0.4931448230       -1.6885525352
 C          4.3704896845        0.5648600179       -2.3769035439
 C          5.4696516203        1.2220895022       -1.8452179432
 C          6.0069694796        0.8255863586       -0.6306926369
 C          5.4383295832       -0.2303564919        0.0635609583
 H          5.8206004042       -0.5687524702        1.0128496322
 H          6.8630027130        1.3367036359       -0.2207085328
 H          5.9088135992        2.0476875738       -2.3825456226
 H          3.9530566210        0.8740450665       -3.3217946201
 H          2.9468317803       -1.0254693884       -2.0787011863
 H          1.3672464110       -2.1787169485       -0.0338839658
 H          3.3490359922       -0.1649593002        2.2277495360
 H          2.9124078405        2.2474715122        2.5949075511
 H          1.0241728630        3.3493047776        1.4814963788
 H         -0.6373530338        2.1264376644       -1.3218370718
 C         -1.0966063186        3.6223487263        0.1343958908
 C         -0.3513809971        4.7309899141       -0.5449491202
 C         -1.7995761301        4.5023981436       -0.8539095921
 H         -2.5264001710        5.2113997492       -0.4868061772
 H         -2.0591383721        4.0682541687       -1.8085316763
 H         -0.0840028187        5.6025457540        0.0330172494
 H          0.3751955321        4.4580057865       -1.2949250460
 H         -1.3552137130        3.7407051680        1.1804241671
