  62
        -98.94848909
 C         -2.3559030592       -0.6237687564        0.1718405511
 C         -1.5448196561       -0.0155719083       -0.8157418351
 C         -1.6880458055        1.4399313458       -0.9641708155
 C         -2.5384250861        2.1054902471       -0.1633774883
 C         -2.7839667677        3.5856482760       -0.2062771578
 C         -1.8664298663        4.3453830597        0.7601927422
 C         -0.3882297291        3.9749370823        0.6366229472
 H          0.1655426649        4.6177278263        1.3254360849
 H         -0.2379687627        2.9476249752        0.9780773677
 C          0.1905796160        4.1238416367       -0.7772826959
 H          1.1683242258        4.6046380331       -0.7020528473
 H         -0.4479798682        4.7752190024       -1.3760325712
 C          0.4032484791        2.7960674247       -1.5067529423
 H          1.0559670498        2.9764346269       -2.3653925933
 H          0.9203571907        2.1046751858       -0.8367607039
 C         -0.8656996101        2.1095946243       -2.0291293667
 H         -1.4699404602        2.8280953639       -2.5877541438
 H         -0.5564166633        1.3142728463       -2.7135722505
 H         -1.9904649111        5.4154508506        0.5804431078
 H         -2.1864595818        4.1334173991        1.7831735739
 H         -3.8223281988        3.7664680255        0.0786430679
 H         -2.6298927342        3.9417100161       -1.2233045862
 O         -3.2702402217        1.4958579598        0.8049896389
 C         -3.1758325372        0.1299548291        1.0138549193
 O         -3.8672215054       -0.2917167137        1.9640308784
 O         -0.7485903407       -0.6500365737       -1.5561821309
 C         -2.2922372347       -2.1186082845        0.4412726672
 C         -0.8517597582       -2.5695701260        0.4373453520
 C         -0.3656248786       -3.6304065808       -0.3156182231
 C          0.9785526082       -3.9604755874       -0.2757581486
 C          1.8673203417       -3.2261562110        0.4874030302
 C          1.3893655728       -2.1620044360        1.2437374397
 C          0.0371066735       -1.8670535583        1.2424016062
 H         -0.3211799350       -1.0392442907        1.8379608586
 N          2.2539764907       -1.3516300361        2.0109682784
 S          2.3918300001        0.2528676155        1.5406062510
 O          3.3134977676        0.8456479416        2.4867250671
 O          1.0864438008        0.8540582434        1.4616626318
 C          3.1707892228        0.1840329993       -0.0639541979
 C          4.5175866979        0.4816871430       -0.1519759531
 C          5.1500013928        0.3823119839       -1.3801869057
 C          4.4292488909       -0.0208481553       -2.4944777046
 C          3.0805965245       -0.3214480214       -2.3872577938
 C          2.4381909638       -0.2217423772       -1.1618150076
 H          1.3863567132       -0.4453424753       -1.0663412779
 H          2.5129723845       -0.6357808449       -3.2483527410
 H          4.9202925173       -0.1006936512       -3.4515722803
 H          6.1988540615        0.6173730115       -1.4639555094
 H          5.0340463734        0.7929004897        0.7417770402
 H          3.1814107055       -1.7395536797        2.1207540326
 H          2.9205578425       -3.4640923729        0.4940846325
 H          1.3420302298       -4.7873811939       -0.8665675035
 H         -1.0329429698       -4.1865129114       -0.9531415715
 H         -2.6777835065       -2.2383125580        1.4680051110
 C         -3.1905691137       -2.9518336492       -0.4616350833
 C         -4.4063430332       -2.3574406162       -1.1061252432
 C         -3.2302754169       -2.7510537039       -1.9457339666
 H         -3.3237924136       -3.6209346385       -2.5791978604
 H         -2.6085289704       -1.9723528035       -2.3575736162
 H         -5.3024874933       -2.9577092304       -1.1564320093
 H         -4.5955003539       -1.3056549393       -0.9458726398
 H         -3.2935539667       -3.9711103840       -0.1023306757
