  62
        -98.93373570
 C         -2.2189773688       -0.8548702530        0.6156509965
 C         -3.3594808757       -0.9154969988       -0.2191787941
 C         -4.4252487686        0.0720362129        0.0436742848
 C         -4.2600639938        0.9913272592        1.0115639237
 C         -5.1724797565        2.0899590808        1.5165882136
 C         -6.4115415075        2.5032327995        0.7265683444
 C         -6.1197334777        3.1935697322       -0.6055707079
 H         -7.0670881215        3.3425511279       -1.1281398184
 H         -5.6948076244        4.1791640342       -0.3991694960
 C         -5.1515703200        2.4607177876       -1.5309461270
 H         -4.1719654087        2.3865142379       -1.0537112272
 H         -5.0246670829        3.0688730565       -2.4307678543
 C         -5.5960966888        1.0675465879       -1.9709635447
 H         -4.8972662227        0.7269760561       -2.7395977368
 H         -6.5887706453        1.1235986249       -2.4218158922
 C         -5.6205321001        0.0006775146       -0.8634999273
 H         -6.5412012764        0.0487093392       -0.2874762012
 H         -5.5830848061       -0.9818633011       -1.3424478774
 H         -6.9562264709        3.2143646367        1.3535821267
 H         -7.0657590169        1.6490679971        0.5794645402
 H         -4.5306473899        2.9650707607        1.6610024722
 H         -5.4888091861        1.7739057465        2.5168804789
 O         -3.1318582539        1.0234658454        1.7821853328
 C         -2.1053304853        0.1148667780        1.6147570198
 O         -1.1575848354        0.2668581353        2.4136839696
 O         -3.5162403037       -1.7530374641       -1.1462581506
 C         -1.0423370651       -1.8112188503        0.5015455557
 C         -0.1001810846       -1.4002743071       -0.6053182658
 C         -0.5009276890       -1.3905960575       -1.9373670534
 C          0.3854894607       -1.0142648551       -2.9294129997
 C          1.6817614668       -0.6457904713       -2.6162909317
 C          2.0952006673       -0.6606401273       -1.2889465480
 C          1.2021393793       -1.0352203336       -0.2947043194
 H          1.5264039825       -1.0219053711        0.7352830780
 N          3.4241100313       -0.3419747029       -0.9580745006
 S          3.7620126617        0.4415778801        0.4975604067
 O          3.6728810809       -0.5143190199        1.5723768956
 O          2.9573477744        1.6370113787        0.6212418665
 C          5.4719176369        0.8670021670        0.2219478904
 C          6.4204913332       -0.1331011929        0.3270432172
 C          7.7497356490        0.1764004173        0.0879656570
 C          8.1070677199        1.4734712010       -0.2500750939
 C          7.1446828644        2.4667962161       -0.3492528489
 C          5.8126886949        2.1634760446       -0.1129213071
 H          5.0308542655        2.9037136659       -0.1713962520
 H          7.4256098342        3.4747604214       -0.6088730700
 H          9.1425341207        1.7121462715       -0.4346807868
 H          8.5009823867       -0.5927303930        0.1667722840
 H          6.0964633266       -1.1233785107        0.6013026946
 H          3.9174332933        0.0966115138       -1.7244417190
 H          2.3714142836       -0.3522968455       -3.3932831272
 H          0.0621348298       -1.0040051183       -3.9594470562
 H         -1.5148621599       -1.6661451886       -2.1824287319
 H         -0.4945118950       -1.7150074288        1.4496631703
 C         -1.4596010469       -3.2604969505        0.3372515612
 C         -0.4824729025       -4.3363000382        0.6991875215
 C         -1.6891322793       -4.0992833986        1.5561973484
 H         -2.4877379576       -4.8255332346        1.5383819780
 H         -1.5465159978       -3.6301968319        2.5194064414
 H         -0.4500046287       -5.2279875073        0.0923850016
 H          0.4794035093       -4.0277794263        1.0817871547
 H         -2.1069726546       -3.4289833736       -0.5126431702
