  62
        -98.93781703
 C         -1.1977659495       -1.5075888271        0.3320832698
 C         -1.7307937765       -0.5315004603        1.2072533249
 C         -2.9266475162        0.2056322280        0.7572567531
 C         -3.4159435513       -0.0496753077       -0.4697766129
 C         -4.5937011793        0.5860310694       -1.1598990757
 C         -4.2781018616        1.9913205233       -1.6944631938
 C         -3.5248674748        2.8942773602       -0.7212041964
 H         -2.5712731229        2.4291557355       -0.4608728585
 H         -3.2865543602        3.8226601967       -1.2478758003
 C         -4.2880565018        3.2609844875        0.5499751865
 H         -3.6766496372        3.9866212908        1.0926919824
 H         -5.2227742162        3.7547347663        0.2744786236
 C         -4.6086912547        2.1057255182        1.5017209641
 H         -5.4607164869        1.5298615149        1.1503588380
 H         -4.9049858500        2.5467362436        2.4579427503
 C         -3.4327224647        1.1797265234        1.7935248808
 H         -3.6740399296        0.5738448747        2.6753750851
 H         -2.5667214637        1.7846796722        2.0871031362
 H         -5.2157512380        2.4683291257       -1.9859611210
 H         -3.6601602134        1.8830979103       -2.5895129219
 H         -4.8453333634       -0.0579790314       -2.0056700470
 H         -5.4512191481        0.6095476701       -0.4939357458
 O         -2.8335759256       -0.9546683033       -1.3064885712
 C         -1.7070360404       -1.6787396828       -0.9553623479
 O         -1.2789992137       -2.4177589123       -1.8616592849
 O         -1.2196807104       -0.2701369763        2.3307565981
 C          0.0578459885       -2.2371181624        0.7729587188
 C          1.1525255956       -2.0354410250       -0.2458351807
 C          1.9848843110       -3.0411419163       -0.7181553344
 C          2.9836614841       -2.7465240879       -1.6313646196
 C          3.1898138778       -1.4527370664       -2.0743051047
 C          2.3586030656       -0.4394508184       -1.6091162257
 C          1.3537611833       -0.7413746993       -0.7072627093
 H          0.6917735225        0.0447096203       -0.3793117486
 N          2.5167006341        0.8893635951       -2.0279519616
 S          2.1426649332        2.1388647719       -0.9843250745
 O          0.7140309069        2.2968864164       -0.8703422138
 O          2.8591165581        3.2756182891       -1.5235053696
 C          2.8612267878        1.6650372166        0.5791573469
 C          2.0647185304        1.3467668591        1.6595837939
 C          2.6674939308        0.9395313392        2.8397326332
 C          4.0486092222        0.8604355517        2.9205717910
 C          4.8368991636        1.1936372393        1.8291324441
 C          4.2398535924        1.5970694991        0.6466772274
 H          4.8189197610        1.8737316912       -0.2192904416
 H          5.9112981611        1.1364120950        1.8959585232
 H          4.5115581199        0.5391982017        3.8402147686
 H          2.0460133526        0.6797807056        3.6820537059
 H          0.9908361740        1.4089209092        1.5731110061
 H          3.3406085863        1.0772806838       -2.5787588709
 H          3.9720198406       -1.2284168685       -2.7829610955
 H          3.6173396572       -3.5387668120       -2.0000378759
 H          1.8415331843       -4.0573964397       -0.3901669410
 H          0.3664599228       -1.6979004357        1.6859161678
 C         -0.1435366074       -3.6878537309        1.1834247802
 C         -1.5009899356       -4.2174124953        1.5349134516
 C         -0.8089766441       -4.6944276971        0.2950363473
 H         -0.4201779062       -5.7023686762        0.2833185632
 H         -1.1717136990       -4.3511226031       -0.6604846384
 H         -1.5880285610       -4.8929764821        2.3728394894
 H         -2.3434787819       -3.5500810119        1.4210244054
 H          0.6783887754       -4.0521876414        1.7921650939
