  62
        -98.93896520
 C         -1.0785333639       -1.2338868089       -0.2403143018
 C         -2.0440936869       -1.0370511905        0.7821097964
 C         -2.9484559141        0.1076255131        0.6203775911
 C         -2.8060490724        0.9167291253       -0.4438742967
 C         -3.6293464556        2.1368856220       -0.7622250446
 C         -5.1155089314        1.8809009837       -1.0810462519
 C         -6.0533405244        2.0317996814        0.1233792145
 H         -5.5830992443        2.6892358147        0.8556927358
 H         -6.9669874634        2.5321370934       -0.2041013865
 C         -6.4801515800        0.7292881302        0.8075825673
 H         -7.2608049139        0.2520637883        0.2105916430
 H         -6.9193638346        0.9882770937        1.7734852072
 C         -5.3768165981       -0.3061867270        1.0275770205
 H         -5.1440593293       -0.8011570795        0.0815759454
 H         -5.7653943592       -1.0809141595        1.6916713712
 C         -4.0665829321        0.2593769166        1.6101160003
 H         -4.1915677855        1.3029403348        1.8944674376
 H         -3.7795746558       -0.3087227321        2.4970784748
 H         -5.4094734010        2.6134811354       -1.8343817346
 H         -5.2274879571        0.8944702410       -1.5302355094
 H         -3.5611513515        2.8414022235        0.0697244380
 H         -3.1518147208        2.5933300361       -1.6312743631
 O         -1.8351098864        0.7253496207       -1.3747916755
 C         -0.9616153748       -0.3478074536       -1.3116002644
 O         -0.1533792024       -0.3792388963       -2.2618710942
 H          1.7219423668       -1.0147129946       -1.3572224772
 C          2.0418486723       -1.3485338527       -0.3815628889
 C          1.1776486796       -2.1064335509        0.3960837184
 C          1.5965584331       -2.4973548264        1.6625295945
 C          2.8487150277       -2.1421446321        2.1352270773
 C          3.7048198811       -1.3806948025        1.3590799230
 C          3.2880612571       -0.9768176771        0.0978746543
 N          4.1286703941       -0.1410796655       -0.6778474386
 S          4.2305063039        1.4279447438       -0.0970467270
 O          4.8822463067        2.1959204053       -1.1328800281
 O          4.8887074340        1.3978098848        1.1842545148
 C          2.5421572082        1.9710692090        0.1027528540
 C          1.9531575079        2.7086763511       -0.9038265318
 C          0.6324558645        3.1011772384       -0.7627853597
 C         -0.0775519180        2.7340477491        0.3690359770
 C          0.5204528431        1.9737626546        1.3613910413
 C          1.8455934879        1.5913778360        1.2329439990
 H          2.3456829204        1.0136809988        1.9931209594
 H         -0.0429751131        1.6725159222        2.2306090315
 H         -1.1061658885        3.0381611606        0.4783782306
 H          0.1580715803        3.6822119626       -1.5372079766
 H          2.5404743283        2.9718372646       -1.7690942557
 H          3.8385499254       -0.1020083375       -1.6462360318
 H          4.6717647953       -1.0690912575        1.7190402572
 H          3.1595009048       -2.4563691375        3.1200386547
 H          0.9254528515       -3.0712106804        2.2848961794
 C         -0.1963652775       -2.4660039408       -0.1127897223
 H         -0.6833482157       -3.0851101167        0.6524048119
 C         -0.1139064207       -3.2687582377       -1.3968288682
 C          0.2801265662       -4.7124868416       -1.3271201002
 C         -1.1316731757       -4.3357668869       -1.6605797644
 H         -1.4801267921       -4.4760481783       -2.6728651753
 H         -1.8932061718       -4.4969398359       -0.9114610142
 H          0.4755131959       -5.1306517614       -0.3513264273
 H          0.9044182584       -5.1144818584       -2.1102134547
 H          0.2300333934       -2.6931334524       -2.2462223265
 O         -2.1506383999       -1.7941599339        1.7828786910
