  62
        -98.94063597
 C         -1.6160731261       -1.3732310467        0.7040614349
 C         -1.6364819429       -0.0053944427        1.0835471307
 C         -2.9056929142        0.7033734140        0.8952669424
 C         -3.9743371058        0.0366424511        0.4236832908
 C         -5.3481429108        0.6095139789        0.2025197838
 C         -5.5165374840        1.3244670752       -1.1452302451
 C         -4.8011744588        2.6710964300       -1.2613318502
 H         -5.1783096196        3.1566633740       -2.1636470403
 H         -5.0756609918        3.3007776463       -0.4144886054
 C         -3.2723402276        2.5684526989       -1.3571605757
 H         -2.9139891353        3.2165498332       -2.1599089302
 H         -2.9918028758        1.5466467818       -1.6232161612
 C         -2.5264904493        2.9696234967       -0.0843046665
 H         -1.4588250067        2.8050725141       -0.2494403954
 H         -2.6840697429        4.0324673293        0.1115437236
 C         -2.9344711261        2.1770289493        1.1641291349
 H         -2.2094252913        2.3836439281        1.9547667062
 H         -3.9230789160        2.4852431942        1.5036371456
 H         -6.5860821663        1.4905313280       -1.2941855697
 H         -5.1704251039        0.6583275153       -1.9389899517
 H         -6.0450331333       -0.2308030853        0.2355739920
 H         -5.5933562064        1.2960163761        1.0134142762
 O         -3.9255422947       -1.2817718865        0.1015079484
 C         -2.7418105608       -2.0116761848        0.1838923041
 O         -2.8535373437       -3.1827948793       -0.2218066743
 H          2.2405376737       -1.0809009959        0.7640854236
 C          1.8416344471       -1.2631652081       -0.2217646475
 C          0.5667154387       -1.7872307511       -0.3684882656
 C          0.0749330631       -2.0130376881       -1.6510648469
 C          0.8516793933       -1.7254708872       -2.7577290886
 C          2.1219220067       -1.1956943873       -2.6087674099
 C          2.6202522685       -0.9627701790       -1.3321999435
 N          3.9076025941       -0.4436330018       -1.1558662082
 S          4.2952972040        0.5150792144        0.1533678618
 O          5.5174422333        1.1769218307       -0.2515525623
 O          4.3862170628       -0.2897645114        1.3459261178
 C          2.9927866483        1.7227932477        0.3094912971
 C          2.6699671056        2.4861921733       -0.7953735455
 C          1.6969870827        3.4633720700       -0.6713196718
 C          1.0717047758        3.6649095759        0.5501197405
 C          1.4049024136        2.8889217001        1.6478068981
 C          2.3738468020        1.9063472300        1.5276978846
 H          2.6541769301        1.2779970965        2.3577242445
 H          0.9088768766        3.0351141880        2.5931595616
 H          0.3191682228        4.4317889319        0.6473875583
 H          1.4285183045        4.0656229449       -1.5247350251
 H          3.1835761268        2.3174439586       -1.7280185378
 H          4.3805137328       -0.1563059917       -1.9992312044
 H          2.7254363857       -0.9671219900       -3.4737285383
 H          0.4625433796       -1.9089695350       -3.7479124906
 H         -0.9199620040       -2.4182834206       -1.7658494264
 C         -0.2777578200       -2.0753981503        0.8463973828
 H          0.2114028749       -1.5842573968        1.7035343747
 C         -0.3761775445       -3.5568752957        1.1737368267
 C          0.0209149046       -4.6431772335        0.2243732573
 C          0.8774999497       -4.3448785999        1.4159592203
 H          0.8972598032       -5.0505064607        2.2326989391
 H          1.8188640890       -3.8434345242        1.2433812497
 H          0.3896588026       -4.3641791829       -0.7499624832
 H         -0.5736459048       -5.5438652201        0.2220181306
 H         -1.2189700233       -3.7743066402        1.8213562120
 O         -0.6362615005        0.5897017108        1.5634121424
