  62
        -98.94371864
 C         -1.6262074744       -0.1569092360        0.8227854130
 C         -2.9013236847        0.1202495097        1.3706899769
 C         -4.0459137572       -0.4255739647        0.6328922454
 C         -3.8370155650       -1.1502888803       -0.4814868778
 C         -4.9004304778       -1.7915560454       -1.3314195640
 C         -5.5296523600       -0.8452516243       -2.3630714064
 C         -6.4714835286        0.2124445689       -1.7863185305
 H         -7.0045181692        0.6598395514       -2.6276705647
 H         -7.2142858330       -0.2711652174       -1.1511128394
 C         -5.7667859988        1.3271502349       -1.0005894781
 H         -4.7024381684        1.3296336172       -1.2472009541
 H         -6.1675217535        2.2967434579       -1.3050329521
 C         -5.9231788670        1.2293580412        0.5170441244
 H         -6.9737856239        1.3589847413        0.7863920335
 H         -5.3563942847        2.0450460336        0.9734331984
 C         -5.4231474327       -0.0899317110        1.1202712126
 H         -5.3726569531        0.0269731678        2.2056420377
 H         -6.1175186151       -0.8969212104        0.8874868796
 H         -4.7287226229       -0.3545655542       -2.9209003434
 H         -6.0963206864       -1.4599848906       -3.0662574213
 H         -4.4170253870       -2.6112997494       -1.8669748791
 H         -5.6807554118       -2.2059473856       -0.6925412208
 O         -2.5937965902       -1.4062877921       -0.9674863152
 C         -1.4597088371       -0.9000280876       -0.3463851299
 O         -0.3924628785       -1.1854207949       -0.9192724228
 O         -3.0744325177        0.7915243967        2.4235469500
 C         -0.3935036395        0.3985466421        1.5140094759
 C          0.3178422794        1.3368223367        0.5715264820
 C         -0.3798428830        2.4269538517        0.0559381827
 C          0.2206435067        3.2856694570       -0.8433576763
 C          1.5260616086        3.0737511589       -1.2528063529
 C          2.2315085181        1.9900801848       -0.7436197062
 C          1.6288732750        1.1386701818        0.1733126674
 H          2.1936229453        0.3137116890        0.5691163225
 N          3.5318177283        1.7237242348       -1.1782671383
 S          4.6187290413        0.8051862128       -0.3186480249
 O          4.6449990611        1.1729730659        1.0782644107
 O          5.8653219954        0.9767102634       -1.0343129243
 C          4.0564577736       -0.8743427794       -0.4995514251
 C          3.5907646519       -1.2999408376       -1.7267621216
 C          3.1600399615       -2.6096925346       -1.8600949878
 C          3.2054719009       -3.4676557536       -0.7724824518
 C          3.6827538196       -3.0271119179        0.4520913510
 C          4.1142957738       -1.7182721622        0.5916836088
 H          4.4816245884       -1.3285710906        1.5281862421
 H          3.7145373191       -3.6957834919        1.2977668173
 H          2.8617714402       -4.4846458227       -0.8784918608
 H          2.7808007722       -2.9546875124       -2.8083437112
 H          3.5585694474       -0.6066521784       -2.5506149557
 H          3.9564798988        2.4032850261       -1.7891115307
 H          1.9920170642        3.7369761348       -1.9653702628
 H         -0.3313825877        4.1274161279       -1.2341219788
 H         -1.4030952458        2.5866221069        0.3680859779
 H         -0.7721841065        0.9838618238        2.3647357175
 C          0.4788731297       -0.7213074792        2.0392773154
 C          1.4312982500       -0.4617801585        3.1665511028
 C          0.2019533270       -1.2864095975        3.3988129914
 H          0.3138572241       -2.3497960987        3.5469947056
 H         -0.6086020657       -0.8497383605        3.9638219581
 H          2.3908603493       -0.9557408971        3.1560883777
 H          1.4614303166        0.5371983845        3.5748319090
 H          0.7833028812       -1.4152259752        1.2632544110
