  62
        -98.93478694
 C          2.1264765061        0.8637601280        0.7182608291
 C          2.3770751436        0.3721869011       -0.5879464293
 C          3.1079331851       -0.9021674225       -0.6569693408
 C          3.4344137095       -1.5557570883        0.4710998151
 C          4.1559581591       -2.8732581447        0.5584362741
 C          5.6838414398       -2.7571827873        0.4668689901
 C          6.2297562334       -2.4236854126       -0.9221441562
 H          7.3080404233       -2.5918669163       -0.8904750519
 H          5.8128208455       -3.1194601275       -1.6508612290
 C          5.9680500851       -0.9807800797       -1.3759919387
 H          5.7039628312       -0.3692296945       -0.5102211245
 H          6.8835393219       -0.5604674057       -1.7980812711
 C          4.8737548955       -0.8375400893       -2.4337330006
 H          5.1857553062       -1.3360654008       -3.3540271514
 H          4.7451148953        0.2253879525       -2.6520835957
 C          3.5111223220       -1.4020909620       -2.0113567874
 H          2.7587997427       -1.0604049897       -2.7264290417
 H          3.5336155194       -2.4916821569       -2.0228880352
 H          6.0196999763       -2.0025304633        1.1818500464
 H          6.1012365851       -3.7178476286        0.7772391425
 H          3.8996268326       -3.3034538507        1.5292128910
 H          3.7917757670       -3.5416439444       -0.2225804704
 O          3.1101216543       -1.0850983941        1.7060967654
 C          2.4586312529        0.1263666439        1.8563168462
 O          2.2262703127        0.4341580714        3.0455981282
 O          2.0185281177        0.9465598654       -1.6443781166
 C          1.3854188083        2.1763405048        0.9581446667
 C          0.0046277177        2.0232359972        0.3685349264
 C         -0.4195243650        2.4530093186       -0.8822457729
 C         -1.6955207554        2.1562963441       -1.3331581065
 C         -2.5745829641        1.4176931601       -0.5639774123
 C         -2.1583458558        0.9662604374        0.6813617202
 C         -0.8892121871        1.2793643124        1.1361020932
 H         -0.5657016377        0.9101781982        2.1026969782
 N         -3.0364148647        0.1836059164        1.4647347837
 S         -3.4285323343       -1.3156860320        0.8028189021
 O         -3.8119426822       -2.1427023153        1.9268844162
 O         -2.3596636467       -1.8196366529       -0.0306351747
 C         -4.8692084437       -0.9731442312       -0.1850775752
 C         -4.8399267728       -1.2004833040       -1.5468983939
 C         -5.9739839705       -0.9258902923       -2.2956536562
 C         -7.1098239933       -0.4319931754       -1.6723608215
 C         -7.1232032398       -0.2113438652       -0.3029207793
 C         -5.9936071672       -0.4847299793        0.4516712433
 H         -5.9613852332       -0.3331648200        1.5176246222
 H         -8.0085226399        0.1724083611        0.1778337368
 H         -7.9900722336       -0.2182069935       -2.2577889090
 H         -5.9650208954       -1.0968359292       -3.3601578546
 H         -3.9310388158       -1.5786289579       -1.9872214878
 H         -2.6982254772        0.0462382685        2.4077572917
 H         -3.5646330024        1.1814379439       -0.9182614914
 H         -2.0035481311        2.5006983376       -2.3086622499
 H          0.2473503335        2.9894730103       -1.5320039354
 H          1.2488958617        2.2152154052        2.0503226880
 C          2.2494187155        3.3852654498        0.6307058059
 C          2.6172144089        3.8723915982       -0.7370326799
 C          1.7081106529        4.6906483923        0.1296396357
 H          2.0995284656        5.6001591293        0.5607097589
 H          0.6603700514        4.7397537815       -0.1200630664
 H          3.6315232754        4.2186019791       -0.8791683927
 H          2.2269085371        3.3460745000       -1.5916033807
 H          3.0468003534        3.4572129711        1.3677391242
