  62
        -98.94457546
 C         -2.0465346499       -1.1702018321       -0.6315829736
 C         -1.5322440325       -0.0289073416       -1.2932098055
 C         -2.2357389030        1.2380979841       -1.0362823160
 C         -3.2846790511        1.2582595709       -0.1966058576
 C         -4.0690057607        2.4825697868        0.1757828674
 C         -3.5071736457        3.1551722590        1.4350843813
 C         -1.9971858086        3.3923660005        1.3948962605
 H         -1.7278732452        3.9232791961        2.3113285756
 H         -1.4737388276        2.4332667436        1.4228137909
 C         -1.5090394707        4.1930158117        0.1796028318
 H         -0.7860807351        4.9365983146        0.5220457880
 H         -2.3428120504        4.7326469447       -0.2723903229
 C         -0.8066309515        3.3451056473       -0.8824082060
 H         -0.0684149320        2.7065830193       -0.3906998632
 H         -0.2689601512        4.0163854905       -1.5578399939
 C         -1.7230742476        2.4629576216       -1.7407007093
 H         -2.5519616066        3.0600405232       -2.1275553123
 H         -1.1368936138        2.0981873329       -2.5893177934
 H         -4.0218914514        4.1083845536        1.5733300981
 H         -3.7296572821        2.5207277232        2.2963979272
 H         -4.0544480373        3.1821395189       -0.6579738620
 H         -5.1007087864        2.1813817594        0.3674110699
 O         -3.7419186058        0.1470835139        0.4367625750
 C         -3.1274217331       -1.0784201473        0.2488847255
 O         -3.6403805250       -2.0114416597        0.9014201422
 H          0.6065051897       -0.9262917890       -0.1393152752
 C          0.5798716351       -1.7846422439        0.5083370961
 C         -0.3992656892       -2.7500944537        0.3191188389
 C         -0.4192575730       -3.8571633940        1.1577562881
 C          0.5116981715       -3.9800246710        2.1748118270
 C          1.4573289096       -2.9938221972        2.3872820202
 C          1.4869176045       -1.8811817574        1.5512663291
 N          2.4331994316       -0.8676629064        1.7449113252
 S          2.1125244851        0.7563329486        1.4504025803
 O          2.7740619374        1.4537847436        2.5356509882
 O          0.7003906688        1.0053739979        1.3042709289
 C          3.0168889525        1.0826524874       -0.0503382808
 C          2.4103120773        1.0164141191       -1.2877555325
 C          3.1760551407        1.2571210835       -2.4194451341
 C          4.5237401174        1.5547876281       -2.2998295711
 C          5.1189342464        1.6174138008       -1.0485066370
 C          4.3609699723        1.3792733830        0.0851281335
 H          4.7782149958        1.4321344497        1.0771472268
 H          6.1672700086        1.8508872191       -0.9542499977
 H          5.1115280340        1.7399740500       -3.1851557927
 H          2.7050751324        1.2054231423       -3.3880619100
 H          1.3607336834        0.7810107030       -1.3774967695
 H          3.0023893640       -0.9772419873        2.5709598008
 H          2.1650131677       -3.0770865057        3.1983445062
 H          0.4880944714       -4.8433778087        2.8225900996
 H         -1.1821686047       -4.6102189453        1.0244070786
 C         -1.4376798388       -2.5595194234       -0.7572914948
 H         -2.2630946579       -3.2583205672       -0.5448474649
 C         -0.9244546569       -2.8764451472       -2.1544096084
 C          0.5278465792       -2.9811771733       -2.4989875508
 C         -0.3137051089       -4.2180488019       -2.4345070085
 H         -0.5709136643       -4.7218640084       -3.3538582888
 H         -0.1646655354       -4.8791168308       -1.5938951325
 H          1.2520853217       -2.8149551924       -1.7169950528
 H          0.8379919127       -2.6106437278       -3.4637878925
 H         -1.5714936954       -2.4666809707       -2.9230060988
 O         -0.5459305281       -0.0440012340       -2.0740026606
