  62
        -98.94678007
 C         -0.3699991456       -1.9298050004        0.5472042033
 C         -1.0624593630       -1.9498288569       -0.6874231029
 C         -2.4282139168       -1.4138390718       -0.6575158961
 C         -2.9427943565       -0.9537148300        0.4974498749
 C         -4.3497634318       -0.4591470574        0.7003559292
 C         -4.5636852833        1.0152642901        0.3357342116
 C         -4.5220246991        1.3321439663       -1.1591619358
 H         -5.2182693820        0.6803268944       -1.6877903150
 H         -4.8802723106        2.3560128317       -1.2800644209
 C         -3.1272420580        1.2187069946       -1.7904931642
 H         -2.3677303051        1.2194864306       -1.0050720768
 H         -2.9371415842        2.0928896212       -2.4164578239
 C         -2.9319802022       -0.0175168272       -2.6687092319
 H         -1.9006746690       -0.0219544054       -3.0312735653
 H         -3.5941183747        0.0391599672       -3.5356281059
 C         -3.1853958751       -1.3488121957       -1.9489315227
 H         -4.2525214389       -1.4869792115       -1.7761428645
 H         -2.8249962338       -2.1593431038       -2.5869691361
 H         -5.5436182948        1.3064114956        0.7209934635
 H         -3.8078275097        1.6077678732        0.8516371718
 H         -5.0368709071       -1.0823349943        0.1269224271
 H         -4.5720599733       -0.5858545445        1.7622509001
 O         -2.2299072002       -0.9207410786        1.6558272923
 C         -0.9256810816       -1.3871648406        1.7045641238
 O         -0.3781983212       -1.2676551480        2.8207118632
 O         -0.5742836426       -2.4054470017       -1.7538870604
 C          1.0362538931       -2.4934527350        0.6266281975
 C          1.9434297804       -1.7730483239       -0.3410458764
 C          2.8060761929       -2.4234443675       -1.2131980143
 C          3.6227435729       -1.6948455135       -2.0606059887
 C          3.6179622973       -0.3129029123       -2.0354186577
 C          2.7650953724        0.3484523020       -1.1580775900
 C          1.9276932953       -0.3835663047       -0.3335316645
 H          1.2597875202        0.1326813140        0.3407773156
 N          2.7356181583        1.7496930994       -1.1010638603
 S          2.5791053499        2.5334297290        0.3704837522
 O          3.2549434163        3.7993150343        0.1746063517
 O          3.0575377703        1.7188629613        1.4615644180
 C          0.8372339390        2.8606897965        0.5309553356
 C          0.1049603712        2.2841232651        1.5486333693
 C         -1.2341137531        2.6178014844        1.6825224016
 C         -1.8130067357        3.5196896315        0.8030586813
 C         -1.0668381225        4.0808653672       -0.2224571239
 C          0.2705906161        3.7510682457       -0.3608819394
 H          0.8907660854        4.1793390731       -1.1304890968
 H         -1.5239005969        4.7765615672       -0.9071936287
 H         -2.8504929377        3.7917983268        0.9189922205
 H         -1.8100610107        2.1655239766        2.4755409177
 H          0.5822175057        1.5871909385        2.2218099340
 H          3.4057922191        2.2113514613       -1.6986143822
 H          4.2653488912        0.2536581062       -2.6875135863
 H          4.2813027503       -2.2116455943       -2.7422296268
 H          2.8358026920       -3.5002731966       -1.2355583595
 H          1.3973135759       -2.2782407100        1.6438946595
 C          1.0029571408       -3.9949364295        0.4278709077
 C          2.0447059569       -4.8650393287        1.0622598867
 C          0.6418742392       -4.8696932422        1.5891270867
 H          0.0245336301       -5.7371418010        1.4099998545
 H          0.4466370768       -4.3828019054        2.5339263691
 H          2.3904773490       -5.7341911877        0.5232531480
 H          2.8064246967       -4.3812681254        1.6552393091
 H          0.6223343229       -4.2764620009       -0.5472315870
