  62
        -98.94308324
 C          2.5675097811        0.1572850307        0.5278911482
 C          2.1916055203       -0.3718165736       -0.7324931791
 C          1.9599382620       -1.8242562575       -0.7764177260
 C          2.0669073186       -2.5471215656        0.3518441828
 C          1.8247857394       -4.0247897178        0.4576684815
 C          0.3676620805       -4.3322026081        0.8262990696
 C         -0.6602032617       -3.6137769220       -0.0485010438
 H         -1.6490499608       -3.9564853907        0.2663094779
 H         -0.6229771732       -2.5392692840        0.1500229113
 C         -0.4913897865       -3.8515708617       -1.5556511468
 H          0.1170369906       -4.7411380012       -1.7268358071
 H         -1.4755948049       -4.0408166281       -1.9889857878
 C          0.1072027329       -2.6652471979       -2.3143001551
 H         -0.4236767938       -1.7530535812       -2.0321767011
 H         -0.0521008124       -2.8274980534       -3.3840741075
 C          1.6085716745       -2.4283589231       -2.1067309331
 H          2.1565112846       -3.3609299709       -2.2625416448
 H          1.9365684276       -1.7052034049       -2.8593380051
 H          0.2164118997       -5.4113611263        0.7550834843
 H          0.2010617648       -4.0316554463        1.8636124614
 H          2.0775915637       -4.4958073063       -0.4903944680
 H          2.4777341481       -4.4222829323        1.2370726301
 O          2.3866750563       -1.9988297055        1.5534227354
 C          2.6214579691       -0.6396114654        1.6727248957
 O          2.8722951808       -0.2660516896        2.8380698817
 H          0.2263368318        1.2167172212        1.1588201145
 C          0.3658472164        2.0240762802        0.4525444709
 C          1.6538897148        2.4084158300        0.1006632496
 C          1.8118100199        3.4507614944       -0.8022511176
 C          0.7023635742        4.0697907236       -1.3528544957
 C         -0.5767427906        3.6548146471       -1.0324278037
 C         -0.7443251118        2.6173772832       -0.1217280561
 N         -2.0264016608        2.1607370401        0.2408180718
 S         -2.1951406463        0.4874712644        0.4327788059
 O         -1.8080630108        0.1319550229        1.7767482737
 O         -1.5214613309       -0.2062125727       -0.6383441023
 C         -3.9620372873        0.3153544420        0.2622914494
 C         -4.4891141559       -0.1555072200       -0.9250067598
 C         -5.8656503174       -0.2595330612       -1.0525618318
 C         -6.6863971407        0.1099212995        0.0022564952
 C         -6.1422974522        0.5801424562        1.1885541840
 C         -4.7671419567        0.6851462471        1.3232110328
 H         -4.2975568743        1.0348277227        2.2278437365
 H         -6.7833925816        0.8635829088        2.0075379309
 H         -7.7569527044        0.0277001140       -0.0992502513
 H         -6.2907316563       -0.6283603658       -1.9720346851
 H         -3.8104335031       -0.4364992918       -1.7144049572
 H         -2.7502737444        2.5290100963       -0.3623582536
 H         -1.4384868763        4.1218832186       -1.4849273547
 H          0.8376615740        4.8743286134       -2.0599143642
 H          2.8008138660        3.7605421958       -1.0974935079
 C          2.7930162178        1.6469713283        0.7337642357
 H          2.7196458734        1.7908503877        1.8255457950
 C          4.1700662849        2.1476638281        0.3250316869
 C          5.3459446436        1.2192241378        0.2746748607
 C          4.7950064883        1.7996734904       -0.9912566487
 H          5.3736278182        2.5581029586       -1.4982975871
 H          4.2346177219        1.1588996373       -1.6526959653
 H          6.2974544536        1.5778944398        0.6377526534
 H          5.1650689850        0.1738040406        0.4803534529
 H          4.3662909554        3.1443290108        0.7087667295
 O          2.0724591374        0.3185344520       -1.7774920601
