  62
        -98.94201272
 C         -1.7211574498       -1.3464320454       -0.3200214031
 C         -0.6077839536       -1.6212090114       -1.1476030072
 C          0.4842270449       -2.3854857352       -0.5340932104
 C          0.3706349370       -2.7783758426        0.7474035041
 C          1.4433453897       -3.4656586852        1.5440443902
 C          2.4623553047       -2.4213390882        2.0456459448
 C          3.8606201229       -2.5513146843        1.4371730381
 H          4.4019440957       -1.6331993443        1.6768259089
 H          4.3822030708       -3.3778184163        1.9255516349
 C          3.9226669820       -2.7897558458       -0.0747782638
 H          4.9515514007       -2.5954094647       -0.3843764538
 H          3.7268321484       -3.8420557170       -0.2860503078
 C          2.9790951042       -1.9309590361       -0.9259786934
 H          3.5129940700       -1.6178812876       -1.8252420232
 H          2.6988762073       -1.0234534264       -0.3888766131
 C          1.6966811920       -2.6524244696       -1.3807576760
 H          1.8764974578       -3.7286997476       -1.4446827220
 H          1.4283442419       -2.2993549448       -2.3805270402
 H          2.5567186687       -2.4998627662        3.1305196436
 H          2.0586503736       -1.4253562017        1.8450651345
 H          0.9586005315       -3.9550608822        2.3893777426
 H          1.9334534374       -4.2217894573        0.9346501366
 O         -0.7264369502       -2.5202047225        1.5040476198
 C         -1.7706153898       -1.7517432854        1.0130939664
 O         -2.6728815481       -1.5227578566        1.8426400100
 O         -0.5253223417       -1.2274094223       -2.3438962644
 C         -2.8172355243       -0.4409392295       -0.8554658542
 C         -2.7500592056        0.8680047983       -0.1058911787
 C         -3.8531327552        1.5150710048        0.4331024620
 C         -3.6893016287        2.6831267838        1.1595417626
 C         -2.4322923363        3.2155444577        1.3773879247
 C         -1.3225720799        2.5824966524        0.8264069224
 C         -1.4944460177        1.4395463171        0.0658991230
 H         -0.6305774328        0.9485803428       -0.3575682153
 N         -0.0290136204        3.0949951553        1.0102911254
 S          1.3066856388        2.0957854291        1.1367077167
 O          0.9564342077        0.7498100365        1.5285615699
 O          2.2088845682        2.7930624129        2.0310833861
 C          2.0441003693        2.0786680145       -0.4858624321
 C          1.3706474070        2.5382909882       -1.5983653768
 C          2.0022528086        2.4812102039       -2.8319209180
 C          3.2870455234        1.9724976178       -2.9329252580
 C          3.9544736034        1.5222757141       -1.8044306160
 C          3.3283061384        1.5752069478       -0.5700432692
 H          3.8119161299        1.2421673690        0.3348959597
 H          4.9553822871        1.1290548607       -1.8804732324
 H          3.7711313235        1.9279677268       -3.8957113206
 H          1.4840234369        2.8320149791       -3.7099019914
 H          0.3716184900        2.9297210638       -1.4985816524
 H          0.0379235969        3.8752138777        1.6465888271
 H         -2.3052532051        4.1083445735        1.9704977582
 H         -4.5532672730        3.1749631175        1.5802337303
 H         -4.8380245876        1.0986407167        0.2997257128
 H         -2.5504505558       -0.2509345537       -1.9059683178
 C         -4.1737568840       -1.1076671537       -0.8068790221
 C         -5.2399314165       -0.7150078773       -1.7847066499
 C         -4.5604858592       -2.0442929903       -1.9109136505
 H         -5.1146272621       -2.9357854307       -1.6586325871
 H         -3.8515262652       -2.1840212727       -2.7138193509
 H         -6.2656129631       -0.6953842435       -1.4486149352
 H         -4.9972782636        0.0475337322       -2.5091362317
 H         -4.4717779455       -1.3727825807        0.2009634374
