  62
        -98.93962817
 C         -2.6626704188       -1.2940494389        0.3622861101
 C         -2.8919523689       -0.5221550195       -0.8032065002
 C         -3.8507803891        0.5862782804       -0.6605720007
 C         -4.4441000791        0.8065057909        0.5257735992
 C         -5.3793055992        1.9416180109        0.8234451387
 C         -4.6156855994        3.1635996612        1.3532880582
 C         -3.4051637795        3.5524982310        0.5044084080
 H         -2.9651047496        4.4445831513        0.9551962276
 H         -2.6563429594        2.7592342711        0.5661320383
 C         -3.7275373096        3.8314108603       -0.9703718821
 H         -4.7963018196        4.0132644501       -1.0884006222
 H         -3.2081401297        4.7419478703       -1.2766637326
 C         -3.2932139194        2.7261364799       -1.9348059717
 H         -2.2434474294        2.4780773702       -1.7577388516
 H         -3.3688706095        3.1144561795       -2.9541115318
 C         -4.1114578492        1.4298257999       -1.8772632111
 H         -5.1746766493        1.6618951797       -1.9646572112
 H         -3.8217245092        0.8166876295       -2.7358673108
 H         -5.3082617395        4.0052875312        1.4094039978
 H         -4.2668249394        2.9417318117        2.3644203383
 H         -5.9245509593        2.2043059904       -0.0809541314
 H         -6.0900519892        1.6112693411        1.5826907089
 O         -4.2128350590        0.0355990714        1.6182637196
 C         -3.3193609688       -1.0192282785        1.5664122600
 O         -3.1999548387       -1.6391570380        2.6416773603
 H         -0.2988770989       -0.5936853792       -0.9377740103
 C          0.2772575611       -1.0129151787       -0.1258264901
 C         -0.2904476887       -1.9998390285        0.6684156304
 C          0.4689054614       -2.5430539179        1.6975709006
 C          1.7616814313       -2.1034922076        1.9245189904
 C          2.3212803712       -1.1152367979        1.1345520699
 C          1.5723204411       -0.5686395185        0.1003381397
 N          2.1192727009        0.4473615013       -0.7007907608
 S          3.6685602209        0.2454382412       -1.3123404907
 O          3.7237861808        1.0839903607       -2.4893380011
 O          3.9852082111       -1.1512053688       -1.5023355601
 C          4.7157071709        0.9461855919       -0.0541532910
 C          4.4473383707        2.2321419321        0.3723519984
 C          5.2593681706        2.7990235026        1.3414326081
 C          6.3223880108        2.0760303730        1.8621700484
 C          6.5809923309        0.7874855828        1.4207960590
 C          5.7714190610        0.2139772223        0.4524252393
 H          5.9311665611       -0.7866678779        0.0833711797
 H          7.4080395010        0.2274594131        1.8266534492
 H          6.9528137707        2.5199026434        2.6163660582
 H          5.0608360405        3.8007755927        1.6870899877
 H          3.6137496106        2.7608738417       -0.0590073118
 H          1.4893627709        0.7750521008       -1.4189265309
 H          3.3272282911       -0.7695988377        1.3079032797
 H          2.3401442514       -2.5329815772        2.7280902906
 H          0.0351806315       -3.3060120177        2.3273689509
 C         -1.6988622386       -2.4697718588        0.4075374406
 H         -2.0155333285       -3.0643871484        1.2785334809
 C         -1.8090541985       -3.3707145493       -0.8166749690
 C         -0.7234532385       -3.5382716896       -1.8333309289
 C         -1.0264063184       -4.6491276293       -0.8760346484
 H         -1.5121647782       -5.5388494895       -1.2469088980
 H         -0.3135678383       -4.8302116888       -0.0855176884
 H         -1.0198465885       -3.6433600802       -2.8661201189
 H          0.1977177514       -2.9910448795       -1.7038575292
 H         -2.8248663685       -3.4086044297       -1.1970500889
 O         -2.3325860189       -0.7228526799       -1.9135303202
