  62
        -98.94191267
 C         -1.2468303540       -1.4050211897        0.7280640815
 C         -1.8255448049       -1.1481425225       -0.5395095579
 C         -2.8011128554       -0.0469514259       -0.5863289757
 C         -3.0319477006        0.6827185915        0.5192450391
 C         -3.9909003947        1.8341971390        0.6037428581
 C         -3.3055126936        3.1705411741        0.2903045903
 C         -2.4656622787        3.1511627977       -0.9863951352
 H         -2.0612447859        4.1554069799       -1.1248591147
 H         -1.6163331958        2.4786837028       -0.8450979958
 C         -3.2353063538        2.7378130394       -2.2482912755
 H         -4.3081638539        2.8404235645       -2.0807764700
 H         -2.9678091653        3.4178307730       -3.0595894328
 C         -2.9333076635        1.3209893100       -2.7391302916
 H         -1.8519366684        1.1785986131       -2.8104341081
 H         -3.3442766635        1.2151058929       -3.7467664358
 C         -3.5134695781        0.1835752038       -1.8895585200
 H         -4.5785083205        0.3570383738       -1.7202083998
 H         -3.4030939343       -0.7439740644       -2.4591186761
 H         -4.0752393407        3.9404090430        0.2112231253
 H         -2.6522837303        3.4246860240        1.1270808790
 H         -4.8105022849        1.6624493554       -0.0917285994
 H         -4.3916116936        1.8705855313        1.6184159098
 O         -2.3830509047        0.4680467916        1.6929051137
 C         -1.4804954156       -0.5741803703        1.8263469499
 O         -0.9545284302       -0.6518593056        2.9552369973
 H          1.3344580313       -0.5067348014        0.4317176799
 C          1.5491087729       -1.3245659202       -0.2401699330
 C          0.8007100199       -2.4910835181       -0.1419981682
 C          1.0731034640       -3.5321307801       -1.0182751510
 C          2.0727260277       -3.3986672105       -1.9666226794
 C          2.8317482157       -2.2455811952       -2.0437299999
 C          2.5662986632       -1.1968009028       -1.1695762151
 N          3.3063787383       -0.0059024031       -1.2177809859
 S          3.7006770797        0.7989899894        0.1962641678
 O          4.8910040054        1.5507769539       -0.1417037388
 O          3.8184282196       -0.1108157297        1.3110772288
 C          2.3685742597        1.9514162888        0.4561683801
 C          1.5582936950        1.8434715006        1.5683644514
 C          0.5562292408        2.7813753370        1.7629042778
 C          0.3902792973        3.8122013267        0.8516147378
 C          1.2102703449        3.9059111550       -0.2631652664
 C          2.2083289352        2.9676892907       -0.4658067002
 H          2.8745376017        3.0118896686       -1.3112171639
 H          1.0737908329        4.7072147520       -0.9712161099
 H         -0.3808298328        4.5487342908        1.0134833658
 H         -0.0882823517        2.6914294740        2.6236480609
 H          1.7138184010        1.0334488034        2.2652964316
 H          4.0713212180       -0.0059859289       -1.8765159575
 H          3.6186138657       -2.1506970711       -2.7767257939
 H          2.2697756859       -4.2098730182       -2.6512226116
 H          0.4901309794       -4.4373373111       -0.9747194558
 C         -0.2559010335       -2.5375220846        0.9341685834
 H          0.2456735587       -2.3039019997        1.8889448833
 C         -0.8891045689       -3.9094046279        1.1098503132
 C         -2.2696205379       -4.0537417426        1.6765057570
 C         -2.0064571973       -4.4070275695        0.2450244710
 H         -2.0101885871       -5.4515816274       -0.0310033320
 H         -2.3732334107       -3.7498964237       -0.5264812637
 H         -2.4545945244       -4.8506847025        2.3811412617
 H         -2.8192377024       -3.1475597660        1.8876749944
 H         -0.1604365041       -4.6469906988        1.4334557233
 O         -1.5641316942       -1.8035034829       -1.5803142758
