  62
        -98.94067715
 C         -1.7320198558       -0.3390114162        0.5017594184
 C         -2.9344829060       -0.4918021677        1.2378781326
 C         -4.1530268239       -0.7275148223        0.4526949151
 C         -4.0705264291       -0.7671836788       -0.8894687605
 C         -5.2385049835       -0.9420706148       -1.8154520326
 C         -5.8281761535        0.4140613597       -2.2274518737
 C         -6.0909361129        1.3564727330       -1.0527822370
 H         -5.1367985410        1.6371760962       -0.6007095161
 H         -6.5330723939        2.2683758898       -1.4600166577
 C         -7.0141450554        0.7804316597        0.0300402924
 H         -7.5725005854       -0.0661821515       -0.3710905853
 H         -7.7420205722        1.5441910819        0.3120512338
 C         -6.2985462092        0.3528076344        1.3128341018
 H         -5.6646433398        1.1690388061        1.6687375990
 H         -7.0558410685        0.1698480586        2.0798740846
 C         -5.4392682545       -0.9134865229        1.2074532447
 H         -5.1526366315       -1.2047278616        2.2222782399
 H         -6.0289474627       -1.7224575046        0.7713874525
 H         -6.7594439647        0.2357458453       -2.7681325167
 H         -5.1278301608        0.9035518471       -2.9081481430
 H         -4.8937951842       -1.4645082522       -2.7093459980
 H         -5.9983035628       -1.5461737008       -1.3233615887
 O         -2.9052313654       -0.5988003835       -1.5622304337
 C         -1.7090073403       -0.3647301957       -0.8938363508
 O         -0.7347238426       -0.2033749332       -1.6504203533
 H          2.1246782320        0.0387988515        0.2967347347
 C          1.6041721399        0.9795617183        0.2396228634
 C          0.2954932959        1.0844645218        0.6802136298
 C         -0.3495450473        2.3138202991        0.5630733847
 C          0.2938548555        3.4007414257        0.0065205152
 C          1.6062510026        3.2940189198       -0.4209933120
 C          2.2620170764        2.0766165613       -0.2998681815
 N          3.5909451204        1.9261828197       -0.7241680657
 S          4.6587232253        1.0684751308        0.2360744082
 O          4.3336746140        1.1985122465        1.6377658466
 O          5.9685527753        1.5443676653       -0.1569274087
 C          4.4934185634       -0.6275017426       -0.2773949039
 C          4.4471087284       -0.9135121423       -1.6272287129
 C          4.3684078389       -2.2376353766       -2.0275532950
 C          4.3449364905       -3.2480404395       -1.0781717146
 C          4.3949747917       -2.9443256206        0.2737569035
 C          4.4705542814       -1.6213977547        0.6807543014
 H          4.5018441864       -1.3394664998        1.7213227031
 H          4.3746227209       -3.7311897821        1.0112290228
 H          4.2839545550       -4.2779798580       -1.3928860856
 H          4.3248383098       -2.4779252566       -3.0775976990
 H          4.4673431688       -0.1038228542       -2.3372237987
 H          4.0149124579        2.7607430751       -1.1023118317
 H          2.1148957365        4.1443266411       -0.8497702669
 H         -0.2244300410        4.3434290254       -0.0875155485
 H         -1.3719583110        2.4008985468        0.9062484599
 C         -0.4588250766       -0.0726281550        1.2842995899
 H         -0.8127174265        0.2442077896        2.2805700184
 C          0.4082506383       -1.3025319843        1.5072211418
 C         -0.1961340761       -2.6722207217        1.5748098811
 C          0.6820321473       -2.2973503954        0.4207058730
 H          1.6693805824       -2.7315643705        0.3625710337
 H          0.2264283039       -2.1221327590       -0.5408067583
 H         -1.2592519374       -2.7589083141        1.4034284997
 H          0.1851589246       -3.3638102506        2.3108421773
 H          1.2208821166       -1.1011477692        2.1997487956
 O         -2.9863942208       -0.4274366832        2.4954640882
