  62
        -98.94044333
 C          1.7544835098        0.4157125203        0.3553847698
 C          2.9105907499        0.6581795710        1.1400660495
 C          4.1785472298        0.7834008403        0.4098571092
 C          4.1808191396        0.6435628492       -0.9281951107
 C          5.4073405695        0.6836142884       -1.7919946909
 C          6.0025801594       -0.7194903918       -1.9758588898
 C          6.1789517296       -1.4931115807       -0.6691328892
 H          5.1949134397       -1.7044096703       -0.2442113188
 H          6.6329573596       -2.4545035109       -0.9192211684
 C          7.0408917498       -0.7787968098        0.3812824401
 H          7.7396177898       -1.5001814994        0.8102686006
 H          7.6341541297        0.0024583998       -0.0952557007
 C          6.2524949400       -0.1765299687        1.5457763497
 H          6.9629338101        0.1077729119        2.3266531393
 H          5.5880263300       -0.9338983684        1.9695911604
 C          5.4165529800        1.0658747010        1.2136610887
 H          5.0694988601        1.4937137018        2.1588284584
 H          6.0419927299        1.8060420305        0.7103539780
 H          5.3392338493       -1.2943104123       -2.6262739992
 H          6.9680300694       -0.6220773522       -2.4756637300
 H          5.1273811894        1.0803403175       -2.7692644412
 H          6.1431328696        1.3452109388       -1.3388824616
 O          3.0573337295        0.3950354186       -1.6460110003
 C          1.8180287996        0.2627630191       -1.0306509200
 O          0.8889306995        0.0153328485       -1.8203381697
 H         -2.1555510402        0.0305972702        0.1346082508
 C         -1.6229710602       -0.9045402398        0.1532161715
 C         -0.3086140402       -0.9550821294        0.5865108113
 C          0.3472062098       -2.1843497095        0.5723610723
 C         -0.2879929303       -3.3209784198        0.1147172734
 C         -1.6047837704       -3.2656805802       -0.3098586665
 C         -2.2735905903       -2.0503631501       -0.2837908674
 N         -3.6132205804       -1.9453518505       -0.6951186273
 S         -4.6798509602       -1.1396494296        0.3161623921
 O         -4.3046534400       -1.2912203584        1.7032834822
 O         -5.9865832203       -1.6459095899       -0.0471626572
 C         -4.5773149203        0.5723552900       -0.1596799594
 C         -4.6907906505        0.8980832089       -1.4965447596
 C         -4.6495326305        2.2332928985       -1.8646504908
 C         -4.5025502903        3.2144678894       -0.8956098417
 C         -4.3931132701        2.8708839205        0.4433894786
 C         -4.4314974601        1.5370017709        0.8176624098
 H         -4.3422231899        1.2233765917        1.8456996300
 H         -4.2758431000        3.6348809412        1.1954955879
 H         -4.4700193303        4.2531153591       -1.1851323026
 H         -4.7308295406        2.5053690776       -2.9046295110
 H         -4.8051954206        0.1091465782       -2.2208525489
 H         -4.0161516905       -2.8061349608       -1.0369226765
 H         -2.1065103104       -4.1549968405       -0.6608709456
 H          0.2405050597       -4.2625747099        0.0971828541
 H          1.3726015898       -2.2329196692        0.9142985722
 C          0.4327599399        0.2600509910        1.0849862002
 H          0.7224527901        0.0658759319        2.1322643203
 C         -0.4233085101        1.5182988310        1.1016403492
 C          0.1850321000        2.8770950109        0.9303728279
 C         -0.6963072602        2.3113312699       -0.1403612614
 H         -1.6820054702        2.7332170099       -0.2716978517
 H         -0.2413184704        1.9689209191       -1.0561153712
 H         -0.1930663299        3.6858827414        1.5372095173
 H          1.2478099299        2.9311979907        0.7438299577
 H         -1.2348486999        1.4449877217        1.8200510194
 O          2.8827680801        0.7580165821        2.3960575894
