  62
        -98.93888904
 C         -1.6761497403       -1.0040166539        0.0512110465
 C         -2.8813443094       -0.9814717485        0.7998830987
 C         -4.0706018997       -0.4043105978        0.1512831067
 C         -3.9668494202        0.0750701535       -1.1018965452
 C         -4.9999447099        0.6745900729       -2.0327397541
 C         -6.3667052946        1.1047146071       -1.5072388066
 C         -6.3384334109        2.3086870867       -0.5660705777
 H         -7.3462424132        2.4597830606       -0.1732789380
 H         -6.0713786103        3.1960891650       -1.1456797138
 C         -5.3595856976        2.2106799282        0.6014989935
 H         -5.4346352228        3.1361538903        1.1790600503
 H         -4.3375884486        2.1534748313        0.2207796583
 C         -5.5984314875        1.0453792482        1.5596011870
 H         -6.6277923093        1.0732330016        1.9222860349
 H         -4.9371904288        1.1859347587        2.4190049447
 C         -5.3188271371       -0.3536348241        0.9843413769
 H         -6.1713902249       -0.7271620073        0.4220397260
 H         -5.1548101359       -1.0362019406        1.8232802782
 H         -6.8709252754        0.2650587419       -1.0380715901
 H         -6.9625885162        1.3834950561       -2.3806103986
 H         -5.1513553619       -0.0681089295       -2.8239491620
 H         -4.5125391379        1.5326606932       -2.5067993423
 O         -2.7874723528        0.0334049087       -1.7846633795
 C         -1.6241159759       -0.4884977638       -1.2421430717
 O         -0.6477092787       -0.4175328743       -2.0164796564
 O         -2.9648175082       -1.4439822065        1.9689203987
 C         -0.4684443610       -1.6280473290        0.7286709816
 C          0.4744129253       -0.5962482000        1.2986409410
 C          0.8582291739       -0.6335038291        2.6338580987
 C          1.7620849372        0.2873213321        3.1362175408
 C          2.2993723415        1.2662187389        2.3190232586
 C          1.9139838326        1.3155591314        0.9864600930
 C          1.0164071147        0.3866701598        0.4829215827
 H          0.7343412485        0.4259349182       -0.5588103853
 N          2.4732815931        2.2990289466        0.1349280417
 S          4.0933993321        2.0390309597       -0.2171425371
 O          4.8679058233        2.2751414503        0.9745386437
 O          4.3948106654        2.8790872433       -1.3538511137
 C          4.1717457727        0.3161656070       -0.6694581900
 C          3.8749864369       -0.0376806873       -1.9701521392
 C          3.8478464382       -1.3803018527       -2.3097020621
 C          4.1049794122       -2.3400572138       -1.3431257145
 C          4.3939963124       -1.9686524018       -0.0391716084
 C          4.4263568169       -0.6273500144        0.3053037443
 H          4.6481106891       -0.2963123907        1.3064898532
 H          4.5881663744       -2.7178822841        0.7111998805
 H          4.0806463422       -3.3847502666       -1.6116807554
 H          3.6175123012       -1.6722008368       -3.3219019346
 H          3.6810783181        0.7387588307       -2.6931671343
 H          1.9661383475        2.3790362018       -0.7364544108
 H          3.0173209536        1.9818941616        2.6855194868
 H          2.0512655268        0.2432771059        4.1751021562
 H          0.4371867003       -1.3872110310        3.2827155810
 H         -0.8817225368       -2.2044247064        1.5671114036
 C          0.3014432987       -2.5759098262       -0.1723441824
 C          1.0622551601       -3.7085403061        0.4452342302
 C         -0.1852155665       -3.9827059388       -0.3387461627
 H         -0.0980007821       -4.4446451195       -1.3104782088
 H         -1.0765813939       -4.2690809025        0.2005429194
 H          2.0107845593       -3.9845997276        0.0134724178
 H          1.0172510467       -3.8150357713        1.5182270310
 H          0.7312075193       -2.0902639720       -1.0390962073
