  62
        -98.94400097
 C          1.8000385804        1.4424833629        0.4898434140
 C          2.5870546262        0.8992085441       -0.5555456387
 C          3.4204224109       -0.2588386499       -0.1928578390
 C          3.3587025063       -0.7589922618        1.0539174663
 C          4.1187077878       -1.9593877275        1.5379071400
 C          3.3165110565       -3.2524499189        1.3368006985
 C          2.7322516947       -3.4043449683       -0.0674441680
 H          1.9883524829       -2.6217317878       -0.2307151989
 H          2.2118556730       -4.3640525308       -0.0978792858
 C          3.7695913324       -3.3490404828       -1.1972135870
 H          3.5612813250       -4.1533135056       -1.9058123499
 H          4.7681625664       -3.5239591108       -0.7950490083
 C          3.7649122566       -2.0417172065       -1.9914818044
 H          2.7473583590       -1.8122704518       -2.3171271187
 H          4.3715187972       -2.1869696509       -2.8892839205
 C          4.3231735635       -0.8156984256       -1.2581206636
 H          4.4441689802       -0.0164706384       -1.9950409294
 H          5.3056630520       -1.0507632091       -0.8433486360
 H          2.4941379506       -3.2645890259        2.0561721979
 H          3.9685178878       -4.0998460804        1.5565520983
 H          5.0648090475       -2.0209365162        1.0034291496
 H          4.3224317982       -1.8301307189        2.6023412800
 O          2.5491448264       -0.2446989096        2.0154313591
 C          1.7567508671        0.8592765551        1.7591948095
 O          1.0629680165        1.2261655525        2.7303774306
 H         -1.3388047551        1.9376636421        1.5421310078
 C         -1.4475102188        1.8380887694        0.4700673384
 C         -0.3825685820        2.1846807329       -0.3511807602
 C         -0.5168727341        2.0167580999       -1.7244361865
 C         -1.6971669609        1.5264701096       -2.2554756667
 C         -2.7606841529        1.1915476675       -1.4357487477
 C         -2.6291986987        1.3426940103       -0.0613418400
 N         -3.6947728112        0.9845654036        0.7846053433
 S         -4.4282898582       -0.4931070182        0.5074626094
 O         -5.3928548287       -0.3595811018       -0.5555685750
 O         -4.9574202134       -0.9039920136        1.7886809192
 C         -3.1142275775       -1.5851882669       -0.0077335611
 C         -3.1706679656       -2.1948466624       -1.2442622812
 C         -2.1299661534       -3.0238327122       -1.6312658176
 C         -1.0544862582       -3.2249601607       -0.7805294214
 C         -1.0133482358       -2.6063789605        0.4597042883
 C         -2.0511604477       -1.7776664248        0.8522993997
 H         -2.0421142066       -1.2856483755        1.8123632035
 H         -0.1752671552       -2.7592566380        1.1216259053
 H         -0.2418568148       -3.8662271578       -1.0833262205
 H         -2.1583251870       -3.5073669718       -2.5943260323
 H         -4.0242130490       -2.0084131827       -1.8754468793
 H         -3.4904756483        1.1074876333        1.7657749307
 H         -3.6876766715        0.8146051335       -1.8365902204
 H         -1.7906508340        1.4013801030       -3.3233933839
 H          0.3163111691        2.2460170399       -2.3688319267
 C          0.8997695518        2.6543669650        0.2919219886
 H          0.6528937758        3.0074003228        1.3023801659
 C          1.5660448986        3.7882736814       -0.4575665511
 C          0.9459330635        5.1508675801       -0.4004390118
 C          2.2333840404        4.8822944105        0.3179641917
 H          3.1436236128        5.3101098662       -0.0746346727
 H          2.2125068376        4.8189038408        1.3965374915
 H          0.0501113291        5.2676599942        0.1911503490
 H          0.9696111687        5.7658587960       -1.2867968275
 H          2.0354912052        3.4852836791       -1.3831973186
 O          2.6162385486        1.3460249725       -1.7307334571
