  62
        -98.94360259
 C         -0.6786132526       -1.5762875070        0.1773102058
 C         -1.3936882963       -0.6367116989        0.9507887899
 C         -2.3417248781        0.2294538956        0.2282922384
 C         -2.4494377380        0.1154852614       -1.1090804451
 C         -3.2470566167        0.9215370682       -2.1138033592
 C         -4.3695952761        1.8505271421       -1.6586935343
 C         -5.5875687621        1.1375499622       -1.0714731237
 H         -6.2729991611        1.8944531705       -0.6842643634
 H         -6.0991865093        0.6060699201       -1.8777153316
 C         -5.2877264023        0.1249351288        0.0307561820
 H         -6.2368954882       -0.3164083324        0.3462699261
 H         -4.6749488471       -0.6839262901       -0.3724611604
 C         -4.6048526071        0.6945614792        1.2721967484
 H         -4.5946820394       -0.0923542811        2.0308399860
 H         -5.1912064259        1.5284242331        1.6626927892
 C         -3.1535296709        1.1670350732        1.0762170808
 H         -3.1189409134        2.1787725359        0.6775116086
 H         -2.6701195960        1.1786512337        2.0574950408
 H         -4.7006078673        2.3954345162       -2.5470767750
 H         -3.9858861470        2.5909153576       -0.9628354420
 H         -3.6488026978        0.1960908410       -2.8286364650
 H         -2.5032135262        1.5121244224       -2.6623225202
 O         -1.7341726318       -0.8077958442       -1.8151499581
 C         -0.8318691067       -1.6609396095       -1.2056851629
 O         -0.2544296272       -2.4428038849       -1.9856187806
 O         -1.2352461886       -0.5087691164        2.1954760524
 C          0.3620382666       -2.4529111408        0.8508039795
 C          1.7087907566       -2.1627970869        0.2349259345
 C          2.6079500234       -3.1437091344       -0.1604816597
 C          3.7950399257       -2.7922362650       -0.7807131990
 C          4.0989334668       -1.4680012973       -1.0360013742
 C          3.2124550307       -0.4775249744       -0.6266265126
 C          2.0493733266       -0.8305806684        0.0344589899
 H          1.3658111426       -0.0576346829        0.3540358881
 N          3.4805459529        0.8794120827       -0.8572093836
 S          2.2233515508        1.9507942209       -1.1292995358
 O          1.1108541672        1.3403408894       -1.8195157706
 O          2.8537177809        3.0648413338       -1.8090887116
 C          1.7460244637        2.4813438258        0.5006459324
 C          2.7386710453        2.8688773602        1.3793562573
 C          2.3788122240        3.3094184089        2.6423601437
 C          1.0400061672        3.3612243625        3.0005476244
 C          0.0555931619        2.9759439020        2.1043226576
 C          0.4094786321        2.5303922131        0.8406464466
 H         -0.3255457174        2.2023692011        0.1207989954
 H         -0.9848536467        3.0103874280        2.3838772007
 H          0.7592438768        3.7023619168        3.9844808273
 H          3.1410467492        3.6095417875        3.3432038959
 H          3.7664647334        2.8172315526        1.0614263749
 H          4.2761249213        1.0662213060       -1.4498625887
 H          5.0077562086       -1.1991999443       -1.5524691330
 H          4.4832410091       -3.5637417097       -1.0913801396
 H          2.3732406869       -4.1832372650       -0.0004616288
 H          0.3810325462       -2.1333328292        1.9034421405
 C         -0.0344910944       -3.9123174757        0.7876193182
 C          0.4170975385       -4.8659144889        1.8523518473
 C         -1.0176392090       -4.4391759592        1.7882664568
 H         -1.7567482361       -5.1533984474        1.4576890845
 H         -1.3815618982       -3.7483153477        2.5346024459
 H          0.6618677580       -5.8780334371        1.5674041517
 H          1.0271686564       -4.4711021643        2.6504340341
 H         -0.1120251879       -4.2764714209       -0.2308896913
