  62
        -98.93585651
 C          1.7744091405        0.9795077597       -0.1000906195
 C          2.3803429501       -0.2562423705       -0.4195632994
 C          3.8291780401       -0.3657319808       -0.1558457295
 C          4.4895892504        0.7024650290        0.3263656803
 C          5.9505765305        0.8339540187        0.6763092502
 C          6.9567708803        0.2301264483       -0.3151585498
 C          7.6553239100       -1.0232140918        0.2150087902
 H          8.6094621599       -1.1377468021       -0.3042134498
 H          7.8769260201       -0.8758449217        1.2740851402
 C          6.8751007596       -2.3248315816        0.0389714805
 H          6.8710459895       -2.6038082817       -1.0170023995
 H          7.4123370995       -3.1079112817        0.5792681205
 C          5.4277749997       -2.2922565712        0.5342019906
 H          5.3587603699       -1.7513329610        1.4773208905
 H          5.1200752994       -3.3208867311        0.7340975107
 C          4.4415938497       -1.6999667110       -0.4839524494
 H          4.9130151097       -1.6405188813       -1.4692899394
 H          3.5860662596       -2.3727653408       -0.6016918292
 H          6.4627376901        0.0171642883       -1.2618133498
 H          7.7215655104        0.9830364081       -0.5126792000
 H          6.1223325208        1.9086546087        0.7702963200
 H          6.1077938805        0.4064652888        1.6698033602
 O          3.8621667208        1.8818859292        0.6041720802
 C          2.5041890508        2.0504448996        0.4122616803
 O          2.0711100511        3.1760788497        0.7314071102
 H         -1.8343935600       -0.3737928095       -1.2090644490
 C         -1.5511321099       -0.5683210095       -0.1885281990
 C         -0.5020091097        0.1176839303        0.4025325008
 C         -0.1768287797       -0.1757113796        1.7250109508
 C         -0.8610369799       -1.1508023593        2.4228257310
 C         -1.9010200101       -1.8416718091        1.8250184612
 C         -2.2456318601       -1.5460310692        0.5130152111
 N         -3.3010986804       -2.2246165590       -0.1203802687
 S         -4.4432819602       -1.3347165788       -0.9583649087
 O         -5.6012334704       -2.1988659985       -1.0276816885
 O         -3.9086839102       -0.8896898791       -2.2191622988
 C         -4.7742986698        0.0566624014        0.1069664312
 C         -4.2547039995        1.2970086212       -0.2000133390
 C         -4.4600325491        2.3456725614        0.6827239709
 C         -5.1756697291        2.1359011017        1.8510448209
 C         -5.6976299594        0.8844429919        2.1419355811
 C         -5.4930568697       -0.1679267683        1.2650471312
 H         -5.8913416700       -1.1521474582        1.4512744014
 H         -6.2583488293        0.7267887521        3.0491220412
 H         -5.3288603688        2.9538612318        2.5372525808
 H         -4.0568512389        3.3203197812        0.4576119107
 H         -3.7057668795        1.4193110010       -1.1190996491
 H         -3.7443091205       -2.9275153088        0.4532798114
 H         -2.4331465502       -2.6092104589        2.3660896313
 H         -0.5863329398       -1.3744318193        3.4426237810
 H          0.6349348605        0.3643912903        2.1933330107
 C          0.2867727805        1.1786266500       -0.3254265594
 H          0.0426197508        2.1546321502        0.1196169805
 C         -0.0072496696        1.2346497099       -1.8103471394
 C         -1.1078031794        2.1061547801       -2.3329861194
 C          0.3230949906        2.4823867298       -2.5709987196
 H          0.7266863005        2.3870486095       -3.5678663696
 H          0.7340577609        3.3093755397       -2.0099779797
 H         -1.6607674492        2.6921573304       -1.6142844794
 H         -1.6974650696        1.7509416002       -3.1654815293
 H          0.1760571901        0.2886662698       -2.3077267893
 O          1.7442724298       -1.2326999304       -0.8967904592
