  62
        -98.93370558
 C         -2.3401310734       -1.1618054010        0.3300817755
 C         -2.6289450457       -0.1052408589       -0.5640520399
 C         -3.6422282610        0.8814104129       -0.1273840160
 C         -4.2009045598        0.7520145145        1.0894299759
 C         -5.2603168328        1.6091003668        1.7293943259
 C         -6.6643530113        1.3368134566        1.1651165663
 C         -6.7310355144        1.1955636591       -0.3533412852
 H         -6.0631329127        0.3916461178       -0.6683283463
 H         -7.7483340350        0.8923019907       -0.6145210496
 C         -6.4058850924        2.4632697466       -1.1396158253
 H         -6.5709199492        2.2409782269       -2.1970773592
 H         -7.1058472760        3.2515030578       -0.8534832961
 C         -4.9816409446        2.9999768184       -0.9843484634
 H         -4.8287570214        3.7472652882       -1.7687172481
 H         -4.8591448423        3.5183362336       -0.0372755508
 C         -3.8832075804        1.9560618639       -1.1609073302
 H         -4.0375836428        1.4317807832       -2.1110939406
 H         -2.9243835144        2.4769643994       -1.2744527355
 H         -7.3279072455        2.1407740115        1.4877684547
 H         -7.0277702999        0.4033276807        1.6015508836
 H         -5.2600665069        1.3626718453        2.7934202761
 H         -4.9997826920        2.6589063968        1.6330826429
 O         -3.8737756050       -0.2707019539        1.9298563205
 C         -2.9603285937       -1.2419047976        1.5803714571
 O         -2.7842843115       -2.1186137138        2.4497843523
 H         -0.0297818317       -0.0583104033       -0.7658234201
 C          0.5855396924       -0.6876765597       -0.1394647085
 C          0.0587940778       -1.8727598196        0.3557035432
 C          0.8680325504       -2.6811891433        1.1447021810
 C          2.1707947260       -2.3094283469        1.4284784505
 C          2.6911702453       -1.1271995117        0.9333774954
 C          1.8908736114       -0.3125133091        0.1430049677
 N          2.4081163597        0.8956163024       -0.3600461320
 S          3.8480939298        0.8173841403       -1.2235407091
 O          3.8349602808        1.9710509917       -2.0957824835
 O          4.0109172493       -0.4694757179       -1.8598015110
 C          5.1016472129        1.0463211641        0.0201119749
 C          6.0972427201        0.1022465215        0.1781094303
 C          7.0665128734        0.3066554472        1.1479896006
 C          7.0233664495        1.4454567226        1.9376063181
 C          6.0182354337        2.3855021047        1.7642253306
 C          5.0470282765        2.1877556203        0.7958707417
 H          4.2516582098        2.8943718006        0.6265248133
 H          5.9881857925        3.2700250822        2.3799206929
 H          7.7777339020        1.6019304784        2.6924388943
 H          7.8490227390       -0.4224571735        1.2839320449
 H          6.0869391833       -0.7703613453       -0.4553779588
 H          1.7239010204        1.4360978893       -0.8706664651
 H          3.7046957574       -0.8325400147        1.1512804049
 H          2.7879266147       -2.9464275060        2.0433964225
 H          0.4658435026       -3.6011316139        1.5433349371
 C         -1.3541633474       -2.2775848289        0.0224994863
 H         -1.6319930621       -3.0958864775        0.7052031928
 C         -1.4941354278       -2.8109683658       -1.3985585188
 C         -0.4536053481       -2.6464001077       -2.4616919743
 C         -0.6779375584       -3.9898629496       -1.8394888371
 H         -1.1544716712       -4.7617794931       -2.4244380251
 H          0.0771240299       -4.3522687075       -1.1581033930
 H         -0.7953597891       -2.4748382452       -3.4713306711
 H          0.4561189570       -2.1178202436       -2.2210421707
 H         -2.5253307517       -2.7845401943       -1.7366323836
 O         -2.0814273129        0.0383840955       -1.6897735065
