  62
        -98.93736845
 C          2.4044445765       -0.1974587650       -0.1777469423
 C          3.1077752742        0.6601475569        0.7060690888
 C          4.5119401562        0.3212906977        0.9681954816
 C          5.0433652053       -0.7663265821        0.3811427432
 C          6.4728029235       -1.2032636885        0.5159375598
 C          7.3472992654       -0.5934630035       -0.5885376049
 C          7.1628409903        0.9142898067       -0.7602451400
 H          7.8498612145        1.2388939230       -1.5447500648
 H          6.1498829419        1.1107775426       -1.1192614400
 C          7.4165120981        1.7337764499        0.5127860881
 H          7.9844424006        1.1392605794        1.2292174733
 H          8.0272389673        2.6015216594        0.2548258626
 C          6.1504555560        2.2650595080        1.1875421591
 H          5.5307545985        2.7813841336        0.4499402704
 H          6.4483368300        3.0027408218        1.9374498833
 C          5.2824334007        1.2176558879        1.8963779608
 H          5.8998145037        0.6278952189        2.5770307248
 H          4.5323342877        1.7516334323        2.4870847417
 H          8.3924238400       -0.8104932855       -0.3605011526
 H          7.0975503767       -1.0784595786       -1.5349761826
 H          6.8459900716       -0.9075186698        1.4945112690
 H          6.5084651871       -2.2910224936        0.4361626251
 O          4.3378698202       -1.5750911211       -0.4479821277
 C          3.0091876766       -1.3134617549       -0.7594855946
 O          2.5075440779       -2.1458073909       -1.5385094907
 H         -1.6266640069        0.7178313132       -0.1330307253
 C         -1.3668179624       -0.2342569631        0.3004034467
 C         -0.0574786945       -0.6945551194        0.2352989639
 C          0.2445040897       -1.9163206341        0.8216079390
 C         -0.7443206034       -2.6613820749        1.4411680344
 C         -2.0499644908       -2.2101227305        1.4821706941
 C         -2.3627513380       -0.9816008963        0.9094240918
 N         -3.6711068110       -0.4753136165        0.9698851543
 S         -4.2470354087        0.4473757460       -0.3224671768
 O         -3.9737138018       -0.2227598460       -1.5732291965
 O         -3.7439473407        1.7919042165       -0.1941951921
 C         -5.9958127111        0.4229658535        0.0250879649
 C         -6.8043944990       -0.4882790724       -0.6277148971
 C         -8.1581437880       -0.5161310762       -0.3314193432
 C         -8.6768962525        0.3607061870        0.6094377568
 C         -7.8529205314        1.2702710407        1.2558735552
 C         -6.4987711867        1.3043570659        0.9635507658
 H         -5.8222494579        1.9994729239        1.4328503553
 H         -8.2606033036        1.9523857299        1.9843972869
 H         -9.7306947006        0.3372248111        0.8380312923
 H         -8.8018418441       -1.2192012875       -0.8350289443
 H         -6.3587341373       -1.1440992706       -1.3583777196
 H         -4.3464811386       -1.1692458508        1.2605226422
 H         -2.8184146369       -2.7980576562        1.9603633488
 H         -0.4923165561       -3.6107705103        1.8894316543
 H          1.2565769357       -2.2899255707        0.7829907338
 C          0.9651773105        0.1570738927       -0.4848587117
 H          0.8376559280        1.1891773350       -0.1255669324
 C          0.6780266633        0.1334437550       -1.9770368139
 C         -0.2555680014        1.1286501897       -2.5940253933
 C          1.2176238131        1.2245825696       -2.8512113652
 H          1.5955085723        0.9635162919       -3.8280609472
 H          1.7646577416        2.0218562089       -2.3686289591
 H         -0.9042109395        0.7957900763       -3.3901786522
 H         -0.7062741504        1.8735233517       -1.9548036484
 H          0.6803304574       -0.8700379172       -2.3858815547
 O          2.5817807447        1.6699627870        1.2491894521
