  62
        -98.94185607
 C          1.1618653791        1.4950545693        0.5231247515
 C          2.1125622887        1.1834308939       -0.4746635659
 C          3.1690198052        0.2186924704       -0.1078439566
 C          3.1632190422       -0.3120502129        1.1289161600
 C          4.1005493196       -1.3410332700        1.7016646080
 C          3.7809363285       -2.7624011944        1.2088060298
 C          3.4560658347       -2.8718932459       -0.2790700973
 H          3.1299935024       -3.8980380519       -0.4711846413
 H          2.6045720208       -2.2266852587       -0.5077431105
 C          4.6137455091       -2.5633618102       -1.2260713806
 H          5.4244687398       -3.2710571752       -1.0370346847
 H          4.2530978137       -2.7350424089       -2.2435712657
 C          5.1844977475       -1.1459581009       -1.1545560002
 H          5.8411072595       -1.0174667313       -2.0202136187
 H          5.8076980011       -1.0221062372       -0.2730614557
 C          4.1452184833       -0.0317512144       -1.2315909768
 H          4.6673327059        0.9198837383       -1.3906332206
 H          3.5314047775       -0.1781266723       -2.1278996140
 H          4.6245852651       -3.4116712734        1.4498562619
 H          2.9070422432       -3.1218677875        1.7582332667
 H          5.1293992532       -1.0731225204        1.4803107607
 H          3.9743036368       -1.3140137611        2.7863570312
 O          2.2153347487        0.0073734535        2.0555821139
 C          1.1877715176        0.8856553792        1.7755764927
 O          0.3709429933        1.0431302554        2.7076577860
 H         -0.4973575422       -0.1412626286       -0.2482195182
 C         -1.0284948738        0.4913515497       -0.9416535991
 C         -0.8559982005        1.8665563876       -0.8828835779
 C         -1.5258828586        2.6557984455       -1.8100666532
 C         -2.3329596402        2.0711357961       -2.7709202040
 C         -2.5068849344        0.6994964509       -2.8193120389
 C         -1.8431247196       -0.0980115223       -1.8941338705
 N         -1.9759838127       -1.4940484783       -1.9032244302
 S         -1.9435808386       -2.3504898566       -0.4682420270
 O         -0.6074068895       -2.3920147771        0.0701239363
 O         -2.5248205346       -3.6311804140       -0.8117244463
 C         -3.0521595908       -1.4640112301        0.6123616644
 C         -4.4028416843       -1.5429908687        0.3283105194
 C         -5.2985722490       -0.8316939181        1.1082959114
 C         -4.8310135794       -0.0485812380        2.1534567790
 C         -3.4747461945        0.0163333326        2.4292212001
 C         -2.5731008611       -0.6975894525        1.6543511652
 H         -1.5140251031       -0.6561456623        1.8568119865
 H         -3.0988603731        0.6213130376        3.2391650366
 H         -5.5259641375        0.5114979906        2.7589513148
 H         -6.3546804034       -0.8866168804        0.8992991559
 H         -4.7264308890       -2.1724062644       -0.4847033648
 H         -2.6594226644       -1.8587669492       -2.5496903271
 H         -3.1379644820        0.2480454610       -3.5691188287
 H         -2.8405699825        2.6946040399       -3.4910583391
 H         -1.4094681520        3.7269518245       -1.7847566567
 C          0.0131626903        2.4357350456        0.2145500590
 H         -0.5962078682        2.4778924195        1.1306266517
 C          0.5270133309        3.8278024200       -0.0922966432
 C         -0.2702207517        5.0348592848        0.2987529700
 C          0.9850877276        4.6933625221        1.0419030597
 H          1.8582592629        5.3120078697        0.8991765016
 H          0.8967980461        4.2881104633        2.0398052739
 H         -0.2574434633        5.8944448777       -0.3543733854
 H         -1.2122181165        4.8731726190        0.8007279021
 H          1.0987311222        3.8643996078       -1.0121526780
 O          2.0835479544        1.6779914787       -1.6328544024
