  62
        -98.94131716
 C         -2.3320459812       -1.1024039593       -0.5288407507
 C         -3.6414502007       -0.9732092075       -0.0007777914
 C         -4.3888659706        0.2231334307       -0.4071459628
 C         -3.8050405257        1.1143863640       -1.2288932983
 C         -4.4272871642        2.4052866059       -1.6745519691
 C         -4.0676592240        3.5538604250       -0.7216552811
 C         -4.2903788573        3.2255376132        0.7547587124
 H         -3.5909268857        2.4413792500        1.0551614374
 H         -4.0326996252        4.1187197301        1.3282954185
 C         -5.7214326095        2.7903684082        1.1004749576
 H         -6.0332224957        3.3073779937        2.0103820511
 H         -6.4030849855        3.0941687716        0.3052415192
 C         -5.8835613727        1.2918702652        1.3621894559
 H         -6.8685747001        1.1292768625        1.8076811869
 H         -5.1370654598        0.9650949783        2.0906715220
 C         -5.7833341942        0.3847440746        0.1293427312
 H         -6.1078675620       -0.6165817725        0.4268460770
 H         -6.4564776711        0.7472341872       -0.6499686287
 H         -4.6613278672        4.4280305957       -0.9951937964
 H         -3.0125977322        3.8020552102       -0.8598785625
 H         -5.5076830921        2.2840613065       -1.7223595972
 H         -4.0519747644        2.6419056589       -2.6715233387
 O         -2.5482260666        0.9583029947       -1.7152651586
 C         -1.7741762253       -0.1412136549       -1.3719613614
 O         -0.6401978478       -0.1401795245       -1.8888364025
 O         -4.1611535806       -1.8219246525        0.7718662987
 C         -1.5104838656       -2.3108104641       -0.1087247165
 C         -0.3989660508       -1.8236030989        0.7873058619
 C         -0.6748289779       -1.5568562311        2.1257118311
 C          0.2981932515       -1.0334956754        2.9560552643
 C          1.5644391604       -0.7581399160        2.4690747803
 C          1.8455438450       -1.0113799362        1.1337097409
 C          0.8713482705       -1.5529186943        0.3045096037
 H          1.0972483649       -1.7287662887       -0.7352349417
 N          3.1300829157       -0.7336841782        0.6221407957
 S          3.7853830130        0.7741918388        1.0167664499
 O          4.3325809804        0.6950036832        2.3488946040
 O          2.8121389017        1.8219090779        0.7992334316
 C          5.1090938807        0.8891237794       -0.1702012990
 C          6.3457887917        0.3627474488        0.1506311110
 C          7.3644871734        0.4285907978       -0.7866158503
 C          7.1303961298        1.0148809049       -2.0215091479
 C          5.8835086497        1.5387449326       -2.3289349009
 C          4.8596978525        1.4749827462       -1.3968342786
 H          3.8767875705        1.8753320042       -1.5910972858
 H          5.7038591332        1.9953007210       -3.2890586930
 H          7.9245408592        1.0664884248       -2.7494785134
 H          8.3357194745        0.0241539246       -0.5515897995
 H          6.4819130672       -0.0751521999        1.1255362100
 H          3.1547082081       -0.8632351167       -0.3812276300
 H          2.3281515739       -0.3324498400        3.0996268938
 H          0.0701114718       -0.8311697906        3.9920369154
 H         -1.6700129137       -1.7503578533        2.5019617813
 H         -2.1900092466       -2.9270930443        0.4951313138
 C         -1.0363512675       -3.1254054211       -1.2934087112
 C         -0.4950981198       -4.5039049073       -1.0630457083
 C         -1.8283559510       -4.3226072988       -1.7222005412
 H         -1.9153460933       -4.5302217607       -2.7781522046
 H         -2.7162474609       -4.5629100317       -1.1561521017
 H          0.3349433359       -4.8400384076       -1.6652352272
 H         -0.4763506998       -4.8656341398       -0.0461529858
 H         -0.5862699613       -2.5263779916       -2.0754530376
