  62
        -98.93739822
 C         -1.7473130764       -0.1838700531        0.0770150837
 C         -2.8062236139       -0.9053226626        0.6775173470
 C         -4.1369450548       -0.2843318142        0.6051031165
 C         -4.2679479059        0.9132559071        0.0058269319
 C         -5.5651570759        1.6368308859       -0.2198357831
 C         -6.3206287129        1.0035729823       -1.4058155796
 C         -7.6409804350        0.3324397722       -1.0266226629
 H         -8.3933226564        1.1042002176       -0.8507348522
 H         -7.9675094019       -0.2555850856       -1.8870643575
 C         -7.5999637924       -0.5718620147        0.2090157705
 H         -7.6418988257        0.0388521128        1.1120930984
 H         -8.5137418990       -1.1697575852        0.1951867364
 C         -6.3950753090       -1.5160865349        0.3102337547
 H         -5.9776788619       -1.7143526632       -0.6771886544
 H         -6.7453947203       -2.4719455590        0.7049957283
 C         -5.2752856019       -1.0275963300        1.2480944221
 H         -5.7075533884       -0.4159412464        2.0448003082
 H         -4.8093640291       -1.8985317046        1.7184056125
 H         -6.5288995564        1.7690264111       -2.1549587807
 H         -5.6619871284        0.2727087545       -1.8797863454
 H         -6.1699389669        1.5996829219        0.6834868501
 H         -5.3226606983        2.6775362088       -0.4358356368
 O         -3.2226280162        1.5837731816       -0.5450519426
 C         -1.9385090271        1.0578641405       -0.5277800132
 O         -1.0817359910        1.7802984457       -1.0708990303
 H          1.9979046052        0.4220322991       -0.7795214197
 C          1.7335294254        0.6760294422        0.2330207524
 C          0.5872283341        0.1616400643        0.8166348156
 C          0.2751725741        0.5365397592        2.1222955915
 C          1.0772496359        1.4201636250        2.8156788026
 C          2.2158072896        1.9419970179        2.2260376124
 C          2.5398314060        1.5702146963        0.9273311055
 N          3.6826870539        2.0912461802        0.3094296488
 S          4.5386561076        1.2280577688       -0.8255954698
 O          5.8543359019        1.8331835402       -0.8131923681
 O          3.8626150189        1.2344276292       -2.0986130401
 C          4.6416786316       -0.4428704978       -0.2048382633
 C          4.9035299534       -0.6554615155        1.1342341256
 C          4.9985516768       -1.9569478406        1.5996727660
 C          4.8390675540       -3.0193691622        0.7233358505
 C          4.5870455018       -2.7900814580       -0.6199397304
 C          4.4868447864       -1.4901178472       -1.0894266449
 H          4.2854322574       -1.2647402322       -2.1243368534
 H          4.4645606719       -3.6163402049       -1.3017725470
 H          4.9119069117       -4.0314907871        1.0889402072
 H          5.1955120627       -2.1381525287        2.6440066741
 H          5.0280786801        0.1855661786        1.7962082145
 H          4.2723571959        2.6684261359        0.8891677709
 H          2.8403976292        2.6411557823        2.7607882153
 H          0.8176573549        1.7061750923        3.8237511158
 H         -0.6169597856        0.1310639251        2.5796810955
 C         -0.3495625469       -0.7784088091        0.1019096316
 H         -0.4360132362       -1.6975121474        0.6998952945
 C          0.0908602381       -1.1498546577       -1.2971717913
 C          1.0863497762       -2.2500633678       -1.5045880232
 C         -0.3520353261       -2.4636023964       -1.8661107308
 H         -0.6224665084       -2.5084869676       -2.9104965150
 H         -0.9518074843       -3.0999319209       -1.2319278016
 H          1.4715308293       -2.7474376021       -0.6274810121
 H          1.8038354677       -2.1451088222       -2.3037413651
 H          0.1206664158       -0.2990935287       -1.9694415904
 O         -2.6440860544       -2.0152919957        1.2525066136
