  62
        -98.93256156
 C          1.6036277855       -1.1186169108       -0.1288655722
 C          2.0990830784        0.1936710510        0.0524996398
 C          3.5704412456        0.3459109013        0.0741456287
 C          4.3485861789       -0.7306676972       -0.1312746650
 C          5.8535585052       -0.8271150706       -0.1440589762
 C          6.6139616923        0.2840958698       -0.8838804734
 C          7.3700647827        1.2309793921        0.0499399455
 H          7.8137554611        0.6427554195        0.8559839572
 H          8.1898288532        1.6898534548       -0.5073370529
 C          6.5331555598        2.3592197722        0.6507767934
 H          6.3012142084        3.0911408785       -0.1260068413
 H          7.1480171277        2.8644219012        1.3994028643
 C          5.2221558199        1.9222983466        1.3072273408
 H          4.9313839110        2.6956367106        2.0216255526
 H          5.3673598244        1.0042210731        1.8757440932
 C          4.0656945548        1.7463940850        0.3112789677
 H          3.1872483364        2.2950127664        0.6658718936
 H          4.3289975839        2.1957003794       -0.6505767663
 H          7.3440512958       -0.1936791379       -1.5392610319
 H          5.9290074265        0.8439034282       -1.5187080874
 H          6.2044647548       -0.8909441358        0.8891345516
 H          6.0695410051       -1.7936672821       -0.6051464291
 O          3.8240742435       -1.9708169591       -0.3498897378
 C          2.4610822447       -2.1976928527       -0.3557106156
 O          2.1399498423       -3.3809202013       -0.5820929571
 O          1.3661917527        1.2063926839        0.1963430075
 C          0.1159723021       -1.4259795162       -0.1464298275
 C         -0.6272731684       -0.4032659295       -0.9685567580
 C         -0.3752453609       -0.3337932756       -2.3366135971
 C         -1.0313002409        0.5866004165       -3.1300268169
 C         -1.9719319153        1.4411095661       -2.5813520538
 C         -2.2292912255        1.3805294410       -1.2175817859
 C         -1.5580053425        0.4635840317       -0.4196349146
 H         -1.7388740733        0.4736792332        0.6414441608
 N         -3.1761529365        2.2302308135       -0.6311570456
 S         -4.0883240864        1.7137411262        0.6640532633
 O         -5.2924337439        2.5154553442        0.5964239899
 O         -3.3421142400        1.8138141743        1.8927927678
 C         -4.4795031732        0.0041596385        0.3282867552
 C         -5.0411837896       -0.3212749251       -0.8904932403
 C         -5.3427053789       -1.6467431602       -1.1573226512
 C         -5.0842869762       -2.6200386690       -0.2042623426
 C         -4.5297577308       -2.2766587210        1.0186986680
 C         -4.2222804301       -0.9524850397        1.2887258966
 H         -3.7823380153       -0.6425644170        2.2234363068
 H         -4.3312783165       -3.0344179580        1.7601648113
 H         -5.3166422909       -3.6520701844       -0.4144961896
 H         -5.7762829299       -1.9172627714       -2.1065374220
 H         -5.2381980857        0.4570715467       -1.6093156214
 H         -3.7004073354        2.8071761984       -1.2710878584
 H         -2.4889598212        2.1594262171       -3.1991518589
 H         -0.8168481517        0.6355828046       -4.1870071316
 H          0.3563808336       -1.0051228659       -2.7659195669
 H          0.0354071627       -2.3951452290       -0.6661260358
 C         -0.4933235131       -1.6235424002        1.2334809896
 C          0.3082739581       -2.1927303505        2.3644463674
 C         -0.1292744054       -0.7605175834        2.4022222043
 H         -0.9096575863       -0.4718155777        3.0920012754
 H          0.6092725980        0.0097137821        2.2446603996
 H         -0.1697732305       -2.8966603792        3.0287372760
 H          1.3521018062       -2.4039829838        2.1823680391
 H         -1.5292621429       -1.9432693636        1.1697991053
