  62
        -98.93592231
 C         -2.5160467715       -0.3590260310        0.5793670825
 C         -2.2372549596        0.2905172589       -0.6477403800
 C         -2.1479848811        1.7627769468       -0.6058471683
 C         -2.2581955207        2.4003325895        0.5710227075
 C         -2.2515952097        3.8819146968        0.8601507422
 C         -1.2750586696        4.7653542995        0.0765857384
 C          0.0864886134        4.1207849372       -0.2212997734
 H          0.8793137231        4.7976803020        0.1032986383
 H          0.2011261031        3.1922472537        0.3427223672
 C          0.2929583713        3.8248367919       -1.7079445730
 H         -0.0722932635        4.6715917859       -2.2941992834
 H          1.3640593447        3.7263594519       -1.8982141914
 C         -0.3713766680        2.5410420395       -2.2007197500
 H          0.1184609575        1.6803082823       -1.7373728499
 H         -0.2088531158        2.4663189315       -3.2790209116
 C         -1.8801876541        2.4341631895       -1.9225691067
 H         -2.3622671055        3.4076604327       -1.9814624804
 H         -2.3169592039        1.7828783399       -2.6847533175
 H         -1.7351871742        5.0753330517       -0.8605696768
 H         -1.1281584261        5.6699589894        0.6695963422
 H         -3.2693796953        4.2566144715        0.7123391943
 H         -2.0348629168        3.9583323820        1.9288607761
 O         -2.4515611987        1.7269716304        1.7432608622
 C         -2.5730531883        0.3500548262        1.7788960377
 O         -2.7295027301       -0.1189144943        2.9262766906
 H         -0.0681828569       -1.3468488106        1.1007870173
 C         -0.1818768584       -2.0692009321        0.3032889441
 C         -1.4554412784       -2.4885263309       -0.0616936187
 C         -1.5817209053       -3.4215867027       -1.0812993069
 C         -0.4565041475       -3.8970140631       -1.7330534324
 C          0.8052978498       -3.4443081720       -1.3963624271
 C          0.9416885786       -2.5177960802       -0.3678028481
 N          2.2080588572       -2.0415810966        0.0169446459
 S          2.3133219183       -0.4472703038        0.5667137447
 O          2.0030193900       -0.4243331898        1.9761291942
 O          1.5402252555        0.4342703737       -0.2757477961
 C          4.0574083742       -0.1537492663        0.3373731352
 C          4.9427086778       -0.6732980830        1.2630500621
 C          6.3017428574       -0.4836541777        1.0697228917
 C          6.7504054646        0.2176893308       -0.0398575461
 C          5.8499642841        0.7354434506       -0.9586168524
 C          4.4891571947        0.5476048798       -0.7721512580
 H          3.7507495425        0.9350609451       -1.4559435694
 H          6.2010206544        1.2830489712       -1.8183020486
 H          7.8086266303        0.3638954208       -0.1880642050
 H          7.0044480080       -0.8825439354        1.7833137980
 H          4.5453939526       -1.2026604807        2.1133664474
 H          2.9259695459       -2.2457570644       -0.6652375021
 H          1.6779297574       -3.7974723649       -1.9245818883
 H         -0.5668395692       -4.6161182683       -2.5306600458
 H         -2.5603460981       -3.7530907771       -1.3872338880
 C         -2.6161444474       -1.8727526913        0.6800612016
 H         -2.4780658411       -2.0907894047        1.7531023354
 C         -3.9692959426       -2.4483903130        0.2921348931
 C         -5.2180020397       -1.6284024532        0.4170201927
 C         -4.7071514580       -2.0141678210       -0.9370234127
 H         -5.2540488370       -2.7607785785       -1.4942425100
 H         -4.2477159174       -1.2570242705       -1.5515914326
 H         -5.1089098017       -0.6005712769        0.7327494826
 H         -6.1109471708       -2.1075902014        0.7895842467
 H         -4.0553554465       -3.4949481404        0.5685039517
 O         -2.0967914288       -0.3131382444       -1.7421749892
