  62
        -98.94512600
 C         -2.2779911013       -0.7196387190       -0.0127289115
 C         -3.2881046866       -0.6886408086        0.9815437558
 C         -4.1826205695        0.4751930481        0.9588861891
 C         -3.9750115645        1.4448297461        0.0494113168
 C         -4.8369048374        2.6620130484       -0.1172449007
 C         -5.9610076634        2.4118942414       -1.1325590060
 C         -6.7396998576        1.1194844979       -0.8866480454
 H         -7.5246042377        1.0642914013       -1.6440420235
 H         -6.0757055326        0.2674440813       -1.0493519743
 C         -7.3679978105        1.0123508564        0.5098535285
 H         -7.4197559524        1.9999829951        0.9694024231
 H         -8.3925238065        0.6491275411        0.4055956542
 C         -6.6486585862        0.0499936641        1.4567669958
 H         -6.5116458989       -0.9152954522        0.9630316495
 H         -7.2908107682       -0.1150370310        2.3259279107
 C         -5.2856910210        0.5220402952        1.9786918489
 H         -5.3795409311        1.5253811865        2.3989551916
 H         -4.9819953216       -0.1589248229        2.7790552573
 H         -6.6449326620        3.2621498994       -1.1059946827
 H         -5.5200810394        2.3616155091       -2.1308969096
 H         -5.2588265761        2.9367903835        0.8475642598
 H         -4.2099038705        3.4802457892       -0.4757347884
 O         -2.9716845768        1.4006577338       -0.8633595982
 C         -2.1045041003        0.3189936320       -0.9274619284
 O         -1.2501553014        0.4089667686       -1.8308076798
 H          0.8199843974       -1.2487671605       -1.6090140591
 C          1.0178359978       -1.1207075772       -0.5567393759
 C          0.0380973401       -1.4306843629        0.3724793304
 C          0.3093852647       -1.2227343008        1.7224487322
 C          1.5324910362       -0.7236676100        2.1271402635
 C          2.5083674761       -0.4126303685        1.1954201605
 C          2.2402640740       -0.5979829655       -0.1533945959
 N          3.2186171477       -0.2794686226       -1.1097221992
 S          4.0690624413        1.1574429660       -0.9492546341
 O          3.2956167449        2.1746233047       -0.2751294620
 O          4.5269517203        1.4752712707       -2.2845163979
 C          5.4750520613        0.6976186263        0.0448325838
 C          5.7976231639        1.4358335581        1.1666140072
 C          6.9016803015        1.0654547502        1.9189211408
 C          7.6604503389       -0.0303237009        1.5375897082
 C          7.3252082958       -0.7596201889        0.4064694163
 C          6.2238208682       -0.3937115321       -0.3505019973
 H          5.9314796417       -0.9322366531       -1.2362833417
 H          7.9172637378       -1.6114988525        0.1131593034
 H          8.5179801529       -0.3174206729        2.1253661164
 H          7.1635984055        1.6319591780        2.7981031718
 H          5.1746660739        2.2764021103        1.4287672158
 H          2.9043073386       -0.4038236455       -2.0615243710
 H          3.4598401581       -0.0110031516        1.5030887315
 H          1.7300670318       -0.5714249108        3.1773728226
 H         -0.4598962639       -1.4463096420        2.4484994118
 C         -1.3328806548       -1.9101874346       -0.0337646284
 H         -1.7029535893       -2.5866564885        0.7484226102
 C         -1.3644364150       -2.6370924924       -1.3615087301
 C         -0.7773599414       -4.0126365505       -1.4584445311
 C         -2.2625051602       -3.8252207482       -1.5239108442
 H         -2.7604751280       -3.9677802218       -2.4713570408
 H         -2.8542810062       -4.1238491919       -0.6711102111
 H         -0.2535524795       -4.2879512349       -2.3610275272
 H         -0.3589696416       -4.4376286346       -0.5588212946
 H         -1.2604127381       -1.9779129653       -2.2150857400
 O         -3.4346322209       -1.5942015109        1.8448489158
