  62
        -98.94026262
 C         -2.0129830409       -0.1109543812       -0.4878237898
 C         -2.8109078709        0.5550452801        0.4756748192
 C         -4.1392799009       -0.0308613396        0.7134330800
 C         -4.5068744108       -1.1566029206        0.0774875017
 C         -5.8124775307       -1.8854660305        0.2448962028
 C         -6.9563302507       -1.3230114419       -0.6100649581
 C         -7.5165312509        0.0217611487       -0.1447516901
 H         -8.4439675609        0.1897863678       -0.6959417203
 H         -7.7737275209       -0.0397337497        0.9131609500
 C         -6.5793029010        1.2143704085       -0.3807137919
 H         -5.8119892010        0.9356052175       -1.1067230214
 H         -7.1453061711        2.0414433878       -0.8153494431
 C         -5.8981887811        1.7445258204        0.8810897374
 H         -6.6512953811        2.1483287014        1.5613321168
 H         -5.2318743612        2.5616290001        0.5932521762
 C         -5.0672572410        0.6994928916        1.6369526589
 H         -4.4564245210        1.2188219128        2.3793325682
 H         -5.7230759009       -0.0020418177        2.1519956500
 H         -7.7666497907       -2.0555524820       -0.5921247470
 H         -6.6103308807       -1.2363780234       -1.6427572982
 H         -6.1044849207       -1.8786393490        1.2954857927
 H         -5.6317627806       -2.9189801409       -0.0587385857
 O         -3.6927910407       -1.7930447419       -0.8070554174
 C         -2.4476785707       -1.2777463622       -1.1225740581
 O         -1.8229118307       -1.9395590634       -1.9772354671
 O         -2.4551058411        1.5764315611        1.1150880476
 C         -0.6289121809        0.3658459383       -0.8965729305
 C          0.4243577791       -0.2262382002        0.0033732903
 C          0.3331445891       -0.1179336882        1.3875544202
 C          1.3125654692       -0.6592848769        2.2000542210
 C          2.4042295792       -1.3100217276        1.6516487720
 C          2.5076029293       -1.4171858896        0.2716641921
 C          1.5203189192       -0.8777522409       -0.5426676387
 H          1.5978936992       -0.9799055525       -1.6168082785
 N          3.6404416393       -2.0444292103       -0.2874572069
 S          5.1122083893       -1.3296781996        0.0906692920
 O          6.0284305493       -1.7615210710       -0.9399163873
 O          5.4701780293       -1.6664854475        1.4445521325
 C          4.7819718291        0.4172589602       -0.0459195206
 C          4.7583936190        0.9807353583       -1.3064881714
 C          4.4014057789        2.3127047481       -1.4390814934
 C          4.0611131088        3.0508188097       -0.3156417745
 C          4.0923106688        2.4711172016        0.9427972964
 C          4.4558625890        1.1412644218        1.0831146783
 H          4.4955534390        0.6559670832        2.0441712691
 H          3.8274418788        3.0480777628        1.8141226855
 H          3.7664556787        4.0823958495       -0.4225445660
 H          4.3800777888        2.7683732266       -2.4160755741
 H          5.0302508791        0.3733657971       -2.1552466705
 H          3.5695594694       -2.1757760018       -1.2867361867
 H          3.1812677893       -1.7309504066        2.2692460826
 H          1.2269015491       -0.5722236153        3.2726320809
 H         -0.5099842109        0.4018266524        1.8162085094
 H         -0.4720131909       -0.0490879031       -1.9048152899
 C         -0.5230036611        1.8818443682       -1.0083113428
 C          0.3550609788        2.7189634396       -0.1318169440
 C          0.7278700889        2.4958748375       -1.5642117237
 H          0.6369659688        3.3143538864       -2.2617016849
 H          1.5574762789        1.8335885273       -1.7628359527
 H         -0.0190022913        3.6863772800        0.1655410245
 H          0.9418339989        2.2262478008        0.6271618567
 H         -1.4615571211        2.3311347476       -1.3146360835
