  62
        -98.93305901
 C         -2.1228122779       -1.0537072289        0.1682935729
 C         -2.5237946131       -0.0042680387        1.0275920568
 C         -2.6756757219        1.3344981551        0.4306522353
 C         -2.3720826714        1.5036114374       -0.8684787722
 C         -2.4277163623        2.7640477615       -1.6943956215
 C         -1.8369981985        4.0268711059       -1.0481057720
 C         -2.8930066577        5.0677750039       -0.6716688994
 H         -2.4157448407        6.0492462762       -0.6307678745
 H         -3.6432130553        5.1017367319       -1.4642961190
 C         -3.5853629052        4.8347409866        0.6698978678
 H         -4.4013562231        5.5566618530        0.7502705366
 H         -2.8831105392        5.0450826714        1.4794568975
 C         -4.1524767540        3.4291809361        0.8791511613
 H         -4.9398248758        3.4962977812        1.6328676529
 H         -4.6171271981        3.0634578902       -0.0355775841
 C         -3.1149933870        2.4143853845        1.3820465679
 H         -2.2247854688        2.9358398677        1.7481570752
 H         -3.5173286228        1.8736493192        2.2447876419
 H         -1.1551938752        4.4814642162       -1.7688451270
 H         -1.2424478604        3.7505957817       -0.1776411929
 H         -1.8801964996        2.5245651734       -2.6087590074
 H         -3.4649630771        2.9459133390       -1.9867499229
 O         -1.9679719910        0.4687909097       -1.6576390424
 C         -1.8043030580       -0.8162625695       -1.1695798578
 O         -1.3936695667       -1.6295075122       -2.0186145544
 H          0.3640513933       -1.0669940205        1.0702177517
 C          0.5520628038       -2.0284360400        0.6122182945
 C         -0.5081279035       -2.8989355283        0.3882245371
 C         -0.2444000014       -4.1294517695       -0.1967241551
 C          1.0472278300       -4.4613037291       -0.5695424643
 C          2.0908805074       -3.5744113551       -0.3850325544
 C          1.8375967830       -2.3428460192        0.2102335425
 N          2.8745131894       -1.4162006701        0.4286250316
 S          2.5060318529        0.2270172820        0.2874780241
 O          1.9300246369        0.6808362813        1.5303801466
 O          1.7337271505        0.4790893896       -0.9080340281
 C          4.1503747532        0.8978845326        0.1189080102
 C          4.9365639714        1.0099583047        1.2503966106
 C          6.2281231922        1.4956960274        1.1230471813
 C          6.7097341035        1.8588864889       -0.1261534165
 C          5.9083992096        1.7431848202       -1.2519287508
 C          4.6159966483        1.2560856806       -1.1317843905
 H          3.9535120772        1.1531362138       -1.9765038823
 H          6.2834892973        2.0292972290       -2.2212914786
 H          7.7150456229        2.2372193247       -0.2226740923
 H          6.8530361355        1.5893454443        1.9964196728
 H          4.5146809423        0.7237069887        2.1995869439
 H          3.7114409603       -1.6447260265       -0.0914644329
 H          3.0915319002       -3.8259213259       -0.7023335515
 H          1.2391166896       -5.4180090537       -1.0313755160
 H         -1.0514905616       -4.8171877032       -0.3883682747
 C         -1.8832966111       -2.4215923287        0.7839980180
 H         -1.8719382473       -2.2284859528        1.8707864954
 C         -2.9846323024       -3.4407640504        0.5387095581
 C         -4.3850026895       -3.0040627686        0.2309832846
 C         -3.5649506066       -3.6858628135       -0.8207016672
 H         -3.8227407586       -4.6995658673       -1.0907564255
 H         -3.1802961157       -3.0976432550       -1.6385165746
 H         -4.5653601108       -1.9434751826        0.1300008506
 H         -5.2023057018       -3.5463491282        0.6822908767
 H         -2.8865059480       -4.3052351844        1.1883671768
 O         -2.7466331434       -0.1769510286        2.2581916564
