  62
        -98.94524739
 C         -1.8430872453       -1.2929833297       -0.0660210099
 C         -2.9701982352       -0.8079984028        0.6377085050
 C         -3.6438591816        0.3532496280        0.0442485061
 C         -3.1757483116        0.8848127817       -1.0999519899
 C         -3.7674231891        2.0547760816       -1.8389496188
 C         -3.3210545710        3.4244618451       -1.3090413759
 C         -3.9208830151        3.8284484154        0.0384158737
 H         -3.6976555032        4.8871884326        0.1846254063
 H         -5.0058197837        3.7273554183       -0.0026326017
 C         -3.3742118410        3.0398405338        1.2368110373
 H         -2.4437127573        2.5429636600        0.9508507348
 H         -3.1297312707        3.7304267765        2.0473739559
 C         -4.3389245292        1.9976838503        1.8031839769
 H         -5.2184573981        2.4987006580        2.2133453996
 H         -3.8379213173        1.4751306574        2.6224594580
 C         -4.8034838332        0.9482173416        0.7847367891
 H         -5.3004148509        0.1409015523        1.3283948136
 H         -5.5151804067        1.3901413689        0.0877211656
 H         -2.2306249967        3.4369990426       -1.2399902109
 H         -3.6140221957        4.1716670138       -2.0501020949
 H         -3.4395632146        1.9645178331       -2.8767403454
 H         -4.8556285809        1.9916380182       -1.8122066617
 O         -2.0875782469        0.3891386743       -1.7465340246
 C         -1.3891068985       -0.7045074530       -1.2469335452
 O         -0.4082106769       -1.0411760214       -1.9323163053
 O         -3.3916522589       -1.3181252918        1.7111711424
 C         -1.0839610294       -2.4848328088        0.4857405954
 C          0.3660055579       -2.1358810899        0.7189451049
 C          1.4098745529       -3.0091304409        0.4406307261
 C          2.7222467051       -2.6350362041        0.6747750305
 C          3.0249929727       -1.3849150144        1.1809447057
 C          1.9886108116       -0.5026728610        1.4595737274
 C          0.6748891769       -0.8861899239        1.2414401762
 H         -0.1278456993       -0.1943842018        1.4668282255
 N          2.2863443966        0.7836764360        1.9424905409
 S          3.5121031384        1.6249495796        1.1689149559
 O          4.7800439653        1.2637059965        1.7535819838
 O          3.1446515246        3.0194476303        1.2862952479
 C          3.4695246598        1.1015976248       -0.5363897543
 C          2.2826029124        1.2161598587       -1.2318880536
 C          2.2289552861        0.7844851822       -2.5464080865
 C          3.3625462411        0.2531719164       -3.1420926264
 C          4.5510036689        0.1555031549       -2.4353060511
 C          4.6070836827        0.5792910651       -1.1174734623
 H          5.5058959257        0.5106684713       -0.5263192302
 H          5.4302050430       -0.2568090142       -2.9037049294
 H          3.3137702077       -0.0895265093       -4.1635510461
 H          1.2966266170        0.8379359886       -3.0848252821
 H          1.4121255203        1.6285495183       -0.7456925530
 H          1.4742393766        1.3693528066        2.0706010758
 H          4.0411893102       -1.0761176947        1.3656954807
 H          3.5216837205       -3.3251730766        0.4535751114
 H          1.1962395166       -3.9842486653        0.0352822512
 H         -1.5458792990       -2.7006527963        1.4613075010
 C         -1.2734524793       -3.6871130892       -0.4167570412
 C         -1.2956789916       -5.0724158455        0.1548622159
 C         -2.5628471162       -4.4469464913       -0.3430420931
 H         -2.9982079448       -4.8158082052       -1.2595895787
 H         -3.2914345716       -4.1154588912        0.3825827637
 H         -0.8623028953       -5.8753858891       -0.4221827784
 H         -1.1691876093       -5.1767029267        1.2218999268
 H         -0.8333486723       -3.5422372479       -1.3969869731
