  62
        -98.94053858
 C         -2.3459571494       -0.1394627200        0.2732688812
 C         -3.5020325557       -0.4677187021        1.0206915611
 C         -4.7313888163        0.2441298010        0.6482090410
 C         -4.6875440594        1.1582654981       -0.3385010767
 C         -5.8746804841        1.9165494950       -0.8563625452
 C         -6.5390911619        1.1758675683       -2.0254334064
 C         -6.8101127840       -0.3024680021       -1.7460111204
 H         -7.3065557508       -0.7142503662       -2.6273954363
 H         -5.8569046441       -0.8257935482       -1.6408530493
 C         -7.6723124471       -0.5661337928       -0.5035867434
 H         -8.2009976937        0.3443709656       -0.2194823109
 H         -8.4269248611       -1.3148048800       -0.7536895198
 C         -6.8988445782       -1.1000329811        0.7034496378
 H         -7.6229243511       -1.4546059392        1.4418111907
 H         -6.2937170254       -1.9583417705        0.4005917966
 C         -5.9837617864       -0.0909533201        1.4086122799
 H         -5.6513754023       -0.5436133744        2.3474325378
 H         -6.5464020562        0.8146468204        1.6439379543
 H         -7.4765907877        1.6806656420       -2.2655794638
 H         -5.8827345930        1.2446303619       -2.8960289196
 H         -5.5334803540        2.8931482517       -1.2035579976
 H         -6.5899314677        2.0577823821       -0.0484763517
 O         -3.5520304549        1.4648422281       -1.0169744934
 C         -2.3554833274        0.8207225309       -0.7382288877
 O         -1.3975899318        1.1889499845       -1.4440431629
 O         -3.5036520299       -1.3114152688        1.9576661324
 C         -1.0441733774       -0.8527947285        0.5864334235
 C          0.0277140659        0.1394481744        0.9635332440
 C         -0.2556947911        1.1015353185        1.9305594376
 C          0.7003874244        2.0209035818        2.3143313460
 C          1.9664212850        1.9916527737        1.7557305826
 C          2.2601601024        1.0360209857        0.7912851894
 C          1.2935209351        0.1184478563        0.4014261788
 H          1.5516484501       -0.6101087288       -0.3484943643
 N          3.5272357943        0.9939258282        0.1881398772
 S          4.1702251276       -0.5076915034       -0.2359669299
 O          3.6605985723       -0.8916472755       -1.5282621204
 O          3.9694770856       -1.4545027683        0.8377046298
 C          5.8986499822       -0.0887943320       -0.3737534513
 C          6.3368081160        0.5470543880       -1.5203149290
 C          7.6733394359        0.8987335850       -1.6217285024
 C          8.5446993776        0.6108091397       -0.5814791947
 C          8.0908553872       -0.0290804493        0.5619782272
 C          6.7548329562       -0.3820789539        0.6707896022
 H          6.3582736352       -0.8875564412        1.5365899012
 H          8.7712774919       -0.2544181153        1.3672836435
 H          9.5846786988        0.8843922566       -0.6641744571
 H          8.0303979189        1.3940749180       -2.5101793008
 H          5.6254204516        0.7415730866       -2.3060855960
 H          4.2077107966        1.5754784619        0.6575557059
 H          2.7156773622        2.7076870719        2.0575186478
 H          0.4624268050        2.7627272150        3.0619913268
 H         -1.2419768119        1.1185170865        2.3747262678
 H         -1.2554813480       -1.4746612141        1.4700404966
 C         -0.6511241012       -1.7604280084       -0.5598924744
 C          0.1935212896       -2.9721212690       -0.3070571820
 C         -1.2562649937       -3.1278049968       -0.6524525909
 H         -1.5166363728       -3.5120434453       -1.6272762348
 H         -1.9393718992       -3.4210708443        0.1314140060
 H          0.9367087965       -3.2428220576       -1.0426214631
 H          0.5011511899       -3.1627632824        0.7103530625
 H         -0.4960154302       -1.2176675775       -1.4865920315
