  62
        -98.94534787
 C         -2.4100188293       -0.1133418491       -0.0700220322
 C         -1.4976255770       -0.5749505018        0.9064835478
 C         -1.1273520539       -1.9930985480        0.8263664610
 C         -1.6259358809       -2.7522320811       -0.1655234448
 C         -1.3538047110       -4.2143526798       -0.3971563270
 C          0.1035383704       -4.5638544193       -0.7571150240
 C          0.9545357499       -5.0092361714        0.4388023553
 H          0.2927837156       -5.3842187747        1.2207228603
 H          1.5827975741       -5.8472832608        0.1302510698
 C          1.8852749418       -3.9438052237        1.0255529494
 H          2.2258134952       -4.2989378908        2.0009186215
 H          2.7642867384       -3.8458695279        0.3839043112
 C          1.2883955968       -2.5448586774        1.1873120433
 H          1.2439919479       -2.0486992759        0.2146277993
 H          1.9747533854       -1.9554824027        1.7998238786
 C         -0.1194439487       -2.5069506628        1.8139202777
 H         -0.4069826767       -3.4934459669        2.1753235756
 H         -0.1282812365       -1.8126314470        2.6566822190
 H          0.0684071007       -5.3822656377       -1.4782212715
 H          0.5643656512       -3.7113128381       -1.2580407838
 H         -1.6573848265       -4.7767712335        0.4887753580
 H         -2.0079893452       -4.5081079190       -1.2205621839
 O         -2.4920555141       -2.2663367229       -1.0965259747
 C         -2.8885165478       -0.9400780115       -1.0840576268
 O         -3.6627158737       -0.6226932516       -2.0120013413
 H         -0.6967620362        0.9096870165       -1.6387064643
 C         -0.5743713347        1.8117171125       -1.0566119968
 C         -1.5819146823        2.2134971466       -0.1888679886
 C         -1.4030069496        3.3861560084        0.5344305023
 C         -0.2326542593        4.1152871039        0.4096881344
 C          0.7891329051        3.6816740462       -0.4154312466
 C          0.6148185014        2.5151553855       -1.1510485117
 N          1.6305259086        2.0127779719       -1.9917290699
 S          2.2592771333        0.5046871536       -1.6144435456
 O          3.3195775460        0.2918763554       -2.5767573784
 O          1.2093636754       -0.4811746838       -1.6011704888
 C          2.9749524394        0.7195424004        0.0061498370
 C          2.1531047799        0.8090191277        1.1118738455
 C          2.7291500000        1.0527642422        2.3499049392
 C          4.1023243968        1.2022122887        2.4628629905
 C          4.9131465491        1.1091680979        1.3413960073
 C          4.3454638141        0.8717643209        0.1005007590
 H          4.9342184173        0.7914035726       -0.7990460194
 H          5.9816427626        1.2228744099        1.4293835863
 H          4.5416016415        1.3909209268        3.4297543284
 H          2.0890036202        1.1218558596        3.2148852206
 H          1.0866700059        0.6797098676        1.0138950982
 H          2.3955524034        2.6587661580       -2.1331491309
 H          1.7126446389        4.2357208646       -0.4911164272
 H         -0.1070812159        5.0237772713        0.9785229618
 H         -2.1781648077        3.7256334627        1.2017647030
 C         -2.8163003913        1.3494083166       -0.0872813287
 H         -3.4122957692        1.4901515472       -1.0013379792
 C         -3.6787281846        1.6719487407        1.1157784738
 C         -4.7392965727        2.7268962149        1.0277051986
 C         -5.1245690784        1.2803029526        1.0918781232
 H         -5.5720404323        0.9024985782        1.9988205753
 H         -5.4924238345        0.8052489471        0.1936537119
 H         -4.9277730663        3.3429994711        1.8939695301
 H         -4.8588633930        3.2393961236        0.0850746755
 H         -3.1446120043        1.5559137390        2.0516952419
 O         -1.0146262655        0.1641039220        1.8051130845
