  62
        -98.93936874
 C         -1.7211530947        1.5916716945        0.3666963762
 C         -0.6467883243        1.7307062973        1.2802199907
 C          0.5237981747        2.5078644360        0.8404695810
 C          0.5178893910        3.0264265030       -0.4008942128
 C          1.6303519514        3.7981773528       -1.0550873639
 C          2.7532367083        2.8818259026       -1.5856159484
 C          3.0139365600        1.6211067581       -0.7605087624
 H          2.0705099796        1.0876696563       -0.6299496821
 H          3.6572301038        0.9627914308       -1.3524802741
 C          3.6895673376        1.8416882774        0.5924702777
 H          3.6946472752        0.8843380731        1.1197334733
 H          4.7283645656        2.1333663784        0.4181828236
 C          3.0578913376        2.9009097340        1.4929571271
 H          3.1749400409        3.8832728773        1.0426026418
 H          3.6265266855        2.9145872455        2.4275359749
 C          1.6015120000        2.6570899316        1.8852276676
 H          1.5432579906        1.7450621207        2.4873578628
 H          1.2865374183        3.4735678313        2.5473865125
 H          2.4660777882        2.5494379356       -2.5858923460
 H          3.6722620607        3.4638446527       -1.6718398573
 H          1.1943226613        4.3380853128       -1.8981277910
 H          2.0167493042        4.5326433559       -0.3527051942
 O         -0.5276490041        2.8667292041       -1.2534989042
 C         -1.6588870815        2.1342080031       -0.9176094191
 O         -2.5037556372        2.0793954336       -1.8297973875
 H         -1.4953705375       -0.5000545097       -1.1241455464
 C         -1.7227952145       -1.1769042163       -0.3142990652
 C         -2.4507810154       -0.7261397915        0.7772143923
 C         -2.7337130257       -1.6187148022        1.8043112012
 C         -2.2889952483       -2.9275929587        1.7391523788
 C         -1.5222833701       -3.3591709145        0.6710672408
 C         -1.2278766279       -2.4719190022       -0.3575701635
 N         -0.4103172268       -2.8481331470       -1.4416524799
 S          0.9683972207       -1.9363692484       -1.7278689851
 O          0.6093812312       -0.5806020366       -2.0483335366
 O          1.6886060608       -2.6707147835       -2.7452834245
 C          1.8805636719       -2.0002251831       -0.1956360380
 C          2.9583498895       -2.8586614993       -0.0955530675
 C          3.6398089229       -2.9456133987        1.1076513804
 C          3.2249617476       -2.1872923766        2.1921720064
 C          2.1379483422       -1.3346720930        2.0774562226
 C          1.4594449843       -1.2344065602        0.8730912331
 H          0.6175110410       -0.5692269259        0.7627830115
 H          1.8002531905       -0.7433322225        2.9142555777
 H          3.7505041713       -2.2575683597        3.1314013004
 H          4.4875928942       -3.6054645756        1.1970723907
 H          3.2433893722       -3.4293590493       -0.9645605987
 H         -0.1716829363       -3.8303678012       -1.4534514266
 H         -1.1463428623       -4.3703866974        0.6354644221
 H         -2.5184759674       -3.6126791339        2.5407215344
 H         -3.2865731527       -1.2756438936        2.6661201158
 C         -2.8739156187        0.7214770700        0.8429389080
 H         -3.0102329928        0.9698443014        1.9086691872
 C         -4.1966026257        0.9810330685        0.1426084025
 C         -4.7406734248        0.0834703911       -0.9237420663
 C         -5.3862226505        0.1124340665        0.4274405901
 H         -6.3528783798        0.5820029328        0.5274285822
 H         -5.2404842470       -0.7449916542        1.0664567253
 H         -4.1625128010       -0.7855683347       -1.1987704474
 H         -5.2436298557        0.5471198383       -1.7583149196
 H         -4.3861352312        2.0414256366        0.0163509925
 O         -0.6670164213        1.2102970310        2.4300687904
