  62
        -98.93761771
 C         -2.6599307568       -1.0997693724        0.1953370274
 C         -2.7076667859       -0.2221280894       -0.9136915489
 C         -3.4805319047        1.0181506113       -0.7270038403
 C         -4.0933337836        1.2459162261        0.4472401012
 C         -4.9542843852        2.4204324435        0.8395021929
 C         -4.4574330857        3.8203093651        0.4492651847
 C         -2.9307340787        3.9845280165        0.4138963036
 H         -2.6560075960        4.8665805793        0.9956564158
 H         -2.4495506929        3.1242199217        0.8830237040
 C         -2.3818689982        4.1678242230       -1.0034699806
 H         -3.0360149449        4.8555200934       -1.5438010275
 H         -1.3966329094        4.6359769544       -0.9400008406
 C         -2.2217895179        2.8853030728       -1.8194326573
 H         -1.3973141036        2.2887733350       -1.4185941994
 H         -1.9447903388        3.1674884589       -2.8378380402
 C         -3.4630110071        1.9800158746       -1.8797711713
 H         -4.3774305168        2.5658974140       -1.9306558957
 H         -3.3876927736        1.3679636968       -2.7824603667
 H         -4.8641116369        4.0926518020       -0.5236465214
 H         -4.8810684758        4.5182766972        1.1732973555
 H         -5.9529213764        2.2656943551        0.4211719488
 H         -5.0469615704        2.3541369019        1.9262205445
 O         -4.0259450083        0.3661099902        1.4879032621
 C         -3.3009056861       -0.8102694158        1.3971525865
 O         -3.2987545902       -1.4969064384        2.4404987089
 H         -0.3640222664       -0.4324250455        1.1352295380
 C          0.2023452343       -1.0103470066        0.4136022450
 C         -0.4167478383       -2.0715882907       -0.2354370396
 C          0.3290610952       -2.8156212927       -1.1400825499
 C          1.6476337204       -2.4845281627       -1.4014740716
 C          2.2501045322       -1.4107486601       -0.7728709869
 C          1.5189836492       -0.6691146842        0.1460790138
 N          2.1147409531        0.4337761254        0.7827213176
 S          3.6127586257        0.2222148185        1.5108343555
 O          3.7951633509       -1.1385511042        1.9604336763
 O          3.6856725762        1.2500306798        2.5264978923
 C          4.7747153661        0.6014637108        0.2167343048
 C          5.7644071220       -0.3051145770       -0.1087903432
 C          6.6644520967        0.0178598782       -1.1125772802
 C          6.5594723324        1.2349022348       -1.7683208972
 C          5.5607028127        2.1351793853       -1.4277826043
 C          4.6586957487        1.8191930774       -0.4245262215
 H          3.8702120351        2.4909453761       -0.1283481681
 H          5.4815518616        3.0803226653       -1.9404444317
 H          7.2599554741        1.4838646165       -2.5497501003
 H          7.4415914625       -0.6803695885       -1.3788901415
 H          5.8030249416       -1.2416125569        0.4244271843
 H          1.4898726144        0.9333960611        1.3985212125
 H          3.2729946479       -1.1437227834       -0.9823013979
 H          2.2127495857       -3.0683631265       -2.1118132548
 H         -0.1237675006       -3.6530051732       -1.6449330214
 C         -1.8553830589       -2.3826034429        0.1045975646
 H         -1.8773404218       -2.8292011731        1.1102880524
 C         -2.5105020915       -3.3414727326       -0.8683334948
 C         -2.4038841120       -4.8217199185       -0.6622533322
 C         -3.7056693797       -4.1223791465       -0.4142124266
 H         -4.5170040139       -4.2758186563       -1.1097283318
 H         -4.0280067671       -3.9828368729        0.6078215498
 H         -2.3250480065       -5.4592296800       -1.5299645970
 H         -1.8457945857       -5.1694512744        0.1941269160
 H         -2.5162945394       -2.9617250489       -1.8834394417
 O         -2.1358201282       -0.4594660576       -2.0080756995
