  62
        -98.93829609
 C         -2.4335056399       -0.8832843653        0.8409301093
 C         -3.4597907319       -0.8212903220       -0.1334098265
 C         -4.4426281137        0.2603698015        0.0401854516
 C         -4.3088626596        1.1231182740        1.0630840383
 C         -5.2066256557        2.2977910592        1.3206047750
 C         -4.6860851082        3.5622677862        0.6229567669
 C         -4.3306243806        3.3547768928       -0.8493363855
 H         -4.0044895252        4.3194430842       -1.2442399205
 H         -3.4776263145        2.6754314751       -0.9190584616
 C         -5.4804889017        2.8128357514       -1.7098234257
 H         -6.4312861072        2.9681215859       -1.1985476332
 H         -5.5173908283        3.3799510531       -2.6423416347
 C         -5.3455248478        1.3375120658       -2.0910158429
 H         -4.3559416117        1.1580886326       -2.5191978241
 H         -6.0826107392        1.1183666808       -2.8682089142
 C         -5.5676935537        0.3326060868       -0.9538432785
 H         -6.5122602589        0.5491027207       -0.4507064369
 H         -5.6361965053       -0.6632805358       -1.4011734497
 H         -5.4460920044        4.3410044548        0.7089846512
 H         -3.7895281150        3.9026018530        1.1461360695
 H         -6.2100057840        2.0640765782        0.9699754277
 H         -5.2397595018        2.4751892627        2.3968774404
 O         -3.2961117469        1.0473589742        1.9640289959
 C         -2.3363828125        0.0560410152        1.8711553193
 O         -1.4584052819        0.1104136999        2.7568149351
 H          0.8645529439       -0.4983418552        1.1575316147
 C          0.7657142679       -0.8042202727        0.1237727632
 C         -0.3300844286       -1.5726434731       -0.2476859275
 C         -0.4624787698       -1.9461760736       -1.5796039707
 C          0.4826764213       -1.5530851446       -2.5110337176
 C          1.5724630381       -0.7867960138       -2.1386771711
 C          1.7125308374       -0.4061094020       -0.8102538080
 N          2.8082833956        0.3884388224       -0.4240823547
 S          4.3191645994       -0.0435160807       -1.0470447573
 O          4.4517862933        0.5382263731       -2.3594932504
 O          4.4946181351       -1.4765810055       -0.9725544408
 C          5.4171895774        0.7772679621        0.0906064333
 C          5.6807355994        2.1218627788       -0.0896034348
 C          6.5215342479        2.7643115868        0.8051971837
 C          7.0805766096        2.0563069478        1.8588876499
 C          6.8067168357        0.7072157971        2.0263678651
 C          5.9657200244        0.0586613060        1.1358121948
 H          5.7326742209       -0.9906932777        1.2214165472
 H          7.2449289981        0.1588691382        2.8447122579
 H          7.7365500487        2.5582573738        2.5524532797
 H          6.7392695769        3.8124304412        0.6777363524
 H          5.2317871674        2.6285825159       -0.9278870305
 H          2.8482558077        0.5171997621        0.5778964869
 H          2.3187639733       -0.4836644257       -2.8555822213
 H          0.3699285393       -1.8479976517       -3.5437125577
 H         -1.3193732398       -2.5234677617       -1.8864094903
 C         -1.3443321808       -1.9453286671        0.8076007660
 H         -0.8436730409       -1.8834412231        1.7833157867
 C         -1.8902972840       -3.3479662637        0.6401956786
 C         -0.9944963715       -4.5111668053        0.9384254913
 C         -2.1330501148       -4.1867065895        1.8571775875
 H         -2.9910487426       -4.8419574047        1.8674347411
 H         -1.9050185534       -3.7519563732        2.8196921243
 H         -1.0676566873       -5.3909547599        0.3178315858
 H          0.0084259440       -4.2942361817        1.2749299538
 H         -2.5936649481       -3.4473135088       -0.1753375053
 O         -3.5732499876       -1.6210835432       -1.0981650003
