  62
        -98.94192594
 C         -1.1795992265       -1.5688921322        0.5047994493
 C         -2.1238772149       -1.2030736175       -0.4830854943
 C         -3.1615980358       -0.2442505758       -0.0678547207
 C         -3.1673881085        0.2227706749        1.1921614858
 C         -4.1435419910        1.1772209044        1.8328149708
 C         -4.5510639626        2.4183884800        1.0267458158
 C         -3.4671225455        2.9816122983        0.0953527070
 H         -3.3756524752        4.0560852245        0.2683613353
 H         -2.4937089700        2.5405919284        0.3230479863
 C         -3.7879399345        2.7746428058       -1.3870802556
 H         -4.8433133822        3.0040656170       -1.5530832069
 H         -3.1999887939        3.4866759282       -1.9715494561
 C         -3.4849518411        1.3818293176       -1.9369737897
 H         -2.4018624969        1.2303400771       -1.9703043802
 H         -3.8465441868        1.3401119356       -2.9674925768
 C         -4.0973948377        0.2114494928       -1.1494104810
 H         -5.0774577936        0.4700673370       -0.7558974657
 H         -4.2054303992       -0.6345338207       -1.8336028617
 H         -5.4395621036        2.1945169790        0.4374514515
 H         -4.8383920538        3.1829622002        1.7506949449
 H         -5.0428298607        0.6158638103        2.1033177908
 H         -3.6643919767        1.4892501025        2.7639556663
 O         -2.2455423314       -0.1686626692        2.1167541107
 C         -1.2134494596       -1.0308275417        1.7888082492
 O         -0.4018178832       -1.2390580310        2.7153053481
 O         -2.1041302369       -1.6515503062       -1.6588672867
 C         -0.0143760870       -2.4686091936        0.1404156732
 C          0.8256942911       -1.8164956951       -0.9338927569
 C          1.5018645067       -2.5309531103       -1.9153952746
 C          2.2704107425       -1.8675107026       -2.8566986690
 C          2.3993379690       -0.4900778788       -2.8328742747
 C          1.7308901543        0.2324953281       -1.8515363395
 C          0.9565776376       -0.4356838392       -0.9180522406
 H          0.4210889361        0.1402569348       -0.1801861621
 N          1.8168232995        1.6308280022       -1.7799307844
 S          1.7925127560        2.3844042277       -0.2874294758
 O          0.4648706083        2.3632464753        0.2732487970
 O          2.3450505927        3.6970884759       -0.5468398346
 C          2.9348394659        1.4411844082        0.7069509566
 C          2.4912504617        0.6217857664        1.7239173343
 C          3.4174591799       -0.1349109783        2.4257681368
 C          4.7627500155       -0.0597775703        2.1029101777
 C          5.1950064999        0.7765444062        1.0841488611
 C          4.2744067597        1.5313541610        0.3774425476
 H          4.5712277993        2.2016298504       -0.4127946981
 H          6.2427557607        0.8384624380        0.8382644889
 H          5.4768145262       -0.6541993867        2.6506613020
 H          3.0691834241       -0.7817013344        3.2155014526
 H          1.4397493696        0.5712672962        1.9612050461
 H          2.4772422281        2.0568953995       -2.4126326821
 H          2.9983750327        0.0225863841       -3.5694673451
 H          2.7822917339       -2.4332459864       -3.6201573948
 H          1.4190020071       -3.6050473988       -1.9485880150
 H          0.6050198893       -2.5460626933        1.0472575911
 C         -0.4982377834       -3.8532636302       -0.2388958032
 C          0.3319180101       -5.0601573603        0.0769512200
 C         -0.9233267329       -4.7913024151        0.8495114137
 H         -1.7829151125       -5.4222014986        0.6805942824
 H         -0.8343955390       -4.4395116122        1.8674118471
 H          0.3330332642       -5.8820955467       -0.6230433511
 H          1.2750143623       -4.9033472249        0.5784252568
 H         -1.0783763192       -3.8525638228       -1.1541512308
