  62
        -98.93895101
 C          0.7425604627        1.1664487943        0.7992070348
 C          1.1661780119        0.7330676023       -0.4793351719
 C          2.1954364528       -0.3271533351       -0.5053093642
 C          2.5775343438       -0.9085640952        0.6452290267
 C          3.5872379367       -2.0013995180        0.9290281185
 C          4.5565072753       -2.4650470850       -0.1550902031
 C          5.6259830488       -1.4393237250       -0.5322421247
 H          6.3282714144       -1.3503677037        0.3005629553
 H          6.1796698462       -1.8203839346       -1.3929717856
 C          5.1144982636       -0.0365154106       -0.8510140189
 H          4.6215424049        0.3829238788        0.0284421273
 H          5.9814398096        0.5949110665       -1.0639587105
 C          4.1667767551        0.0583495660       -2.0447701925
 H          3.9940681450        1.1194874391       -2.2446656075
 H          4.6439206593       -0.3727962637       -2.9269989999
 C          2.7953623210       -0.6107540387       -1.8524865659
 H          2.1047800828       -0.1857342654       -2.5864860422
 H          2.8535899490       -1.6793413120       -2.0376284215
 H          4.0117445905       -2.7898315139       -1.0362796415
 H          5.0710177422       -3.3446582777        0.2411552647
 H          4.1615531043       -1.6590153227        1.7961739387
 H          3.0072703602       -2.8647522688        1.2707904519
 O          2.0032372515       -0.5740485609        1.8400311534
 C          1.1158775480        0.4799003846        1.9548233384
 O          0.7289426396        0.6971066522        3.1214182855
 H         -2.0632849909        0.4915764852        0.9533532576
 C         -2.2088921643        1.1882716739        0.1396039810
 C         -1.3342859337        2.2586299654       -0.0013194023
 C         -1.5470255911        3.1644573143       -1.0317875168
 C         -2.6012981384        2.9850958016       -1.9094403168
 C         -3.4561345649        1.9059203780       -1.7823493574
 C         -3.2567701116        0.9995158189       -0.7462424394
 N         -4.1154854488       -0.0942272055       -0.5868501739
 S         -3.7511532621       -1.3986236365        0.3677259360
 O         -4.6953575217       -2.4138082947       -0.0513185332
 O         -3.8125863295       -1.0309522725        1.7612656088
 C         -2.1033053467       -1.9478365424       -0.0421781952
 C         -1.3315816557       -2.4724728424        0.9747090805
 C         -0.0897899076       -3.0044680921        0.6721888740
 C          0.3620878906       -2.9949733998       -0.6376140463
 C         -0.4166853671       -2.4497559765       -1.6457935723
 C         -1.6648031257       -1.9261313584       -1.3504783471
 H         -2.2878355748       -1.5020891584       -2.1208909208
 H         -0.0559977392       -2.4304168707       -2.6614027169
 H          1.3258192755       -3.4178716744       -0.8718166981
 H          0.5165045149       -3.4197172719        1.4617774534
 H         -1.7143286641       -2.4486534815        1.9831961993
 H         -4.7294678952       -0.3066048090       -1.3572667122
 H         -4.2704556652        1.7607134247       -2.4752596187
 H         -2.7529719264        3.6900161743       -2.7126765667
 H         -0.8702892937        3.9919345039       -1.1660146916
 C         -0.1920695672        2.3506096498        0.9779080565
 H         -0.6104620225        2.2342212146        1.9916955865
 C          0.5164339818        3.6976082529        0.9483302762
 C          1.9126066546        3.8413501818        1.4746219962
 C          1.6450524329        3.9937385406        0.0089615076
 H          1.7066147409        4.9826178339       -0.4213005290
 H          1.9622760456        3.2071484713       -0.6568888580
 H          2.1561796918        4.7212707109        2.0509317526
 H          2.4112897288        2.9455432816        1.8161251853
 H         -0.1642260655        4.5148054979        1.1671015287
 O          0.7329349812        1.2055886729       -1.5598054611
