  62
        -98.93910974
 C          2.5329210329        1.2013912671        0.3171008150
 C          2.4791873820        0.3716185216       -0.8260445366
 C          3.1553072579       -0.9386202484       -0.7296517450
 C          3.7831747467       -1.2621998318        0.4160579961
 C          4.5009756788       -2.5410408094        0.7568799968
 C          3.5350466261       -3.6920820658        1.0822263276
 C          2.3405302084       -3.8164975706        0.1392372073
 H          1.6775413181       -4.5883494938        0.5401567582
 H          1.7756422181       -2.8813578453        0.1419905508
 C          2.6826771342       -4.1970085284       -1.2994559419
 H          1.7359993608       -4.3263976923       -1.8308202529
 H          3.2000922277       -5.1590426451       -1.3012300020
 C          3.5298160232       -3.1872241984       -2.0766330630
 H          4.5743609616       -3.2422508180       -1.7820732877
 H          3.4883069189       -3.4738205974       -3.1314546379
 C          3.0329456948       -1.7470069789       -1.9985187176
 H          3.5403870467       -1.1596926646       -2.7733565006
 H          1.9698264860       -1.7200842696       -2.2668303184
 H          4.0983934226       -4.6266022286        1.0822146028
 H          3.1457077181       -3.5326105695        2.0909163617
 H          5.1057824092       -2.3347586007        1.6426662336
 H          5.1750972730       -2.8160977014       -0.0485549664
 O          3.8072370174       -0.4268609630        1.4951771692
 C          3.1764463177        0.8019938759        1.4860436527
 O          3.2529830788        1.4330201014        2.5609158225
 O          1.8875960629        0.6994353359       -1.8876724427
 C          1.8202193540        2.5423932151        0.3143957547
 C          0.3509052373        2.3196410451        0.0468152421
 C         -0.3760729028        3.0178754003       -0.9073397826
 C         -1.7125029068        2.7253653420       -1.1213204504
 C         -2.3521563026        1.7417166493       -0.3899714134
 C         -1.6369377492        1.0454545922        0.5759071663
 C         -0.3018173508        1.3441030481        0.7912079164
 H          0.2563230841        0.7946403313        1.5411185416
 N         -2.2814005143        0.0430668998        1.3303381909
 S         -2.9269362040       -1.2443187531        0.4580539856
 O         -2.9740298889       -2.3483685526        1.3928430285
 O         -2.2006422560       -1.4734200224       -0.7698227608
 C         -4.5880697590       -0.7126533389        0.1026889012
 C         -5.0286263783       -0.6523488504       -1.2046842576
 C         -6.3278620008       -0.2378590847       -1.4546317677
 C         -7.1577516644        0.1065484207       -0.3986676422
 C         -6.6998940217        0.0388577783        0.9090273184
 C         -5.4030413626       -0.3760386427        1.1659929993
 H         -5.0078759683       -0.4464524453        2.1655856038
 H         -7.3479770408        0.3082951984        1.7272913892
 H         -8.1674755649        0.4301509426       -0.5961182556
 H         -6.6853196701       -0.1842556816       -2.4703933565
 H         -4.3440511352       -0.9225835627       -1.9928524981
 H         -1.7065282444       -0.3155145626        2.0802428875
 H         -3.3899404927        1.5057491706       -0.5603555217
 H         -2.2628730019        3.2695507917       -1.8735123711
 H          0.1069446216        3.7810787172       -1.4948109278
 H          1.9268067230        2.9451508169        1.3324220302
 C          2.4807033527        3.4942961112       -0.6597467896
 C          2.4115552261        4.9734989830       -0.4306684007
 C          3.7027066874        4.2422850753       -0.2220322133
 H          4.5009303761        4.3870359632       -0.9343616690
 H          4.0456055787        4.0815373034        0.7899796692
 H          2.3265855081        5.6247750181       -1.2873321970
 H          1.8795726373        5.3195170444        0.4425341435
 H          2.4559183074        3.1282962206       -1.6795727195
