  62
        -98.94056407
 C         -1.7093918932       -0.2654214119       -0.7931228281
 C         -3.0236766691       -0.4465216914       -1.2954085180
 C         -4.0686297948        0.3878313736       -0.6925293776
 C         -3.7476315130        1.2534800414        0.2856942740
 C         -4.6949329151        2.1886973338        0.9870882756
 C         -5.4654090599        1.5428689764        2.1468999040
 C         -6.5620606153        0.5605704646        1.7334060958
 H         -7.1598105137        0.3543219640        2.6235297027
 H         -7.2187354596        1.0358879380        1.0040331824
 C         -6.0413520689       -0.7692815199        1.1703043609
 H         -4.9905632619       -0.8936573467        1.4423609912
 H         -6.5891920901       -1.5973428384        1.6258188956
 C         -6.1804424507       -0.9140569812       -0.3452217100
 H         -5.7469982173       -1.8733161301       -0.6399111761
 H         -7.2383495205       -0.9258558468       -0.6168184929
 C         -5.4815200861        0.1884895138       -1.1513530750
 H         -6.0410464287        1.1208731547       -1.0774193990
 H         -5.4514184932       -0.1203145728       -2.1992793812
 H         -4.7519608325        1.0375329948        2.8019495241
 H         -5.9283789431        2.3498433448        2.7195001841
 H         -4.0878010644        3.0025851310        1.3890283635
 H         -5.4003120143        2.6040947785        0.2667392296
 O         -2.4790199193        1.3893823612        0.7502613546
 C         -1.4327910838        0.6229725094        0.2476999881
 O         -0.3436831158        0.8393774662        0.8084618848
 O         -3.3101267254       -1.2708735249       -2.2041254687
 C         -0.6090584229       -1.1321338748       -1.3799148593
 C          0.2121749134       -1.7333765900       -0.2685673652
 C         -0.4020063252       -2.6011289152        0.6307195923
 C          0.3051396647       -3.1291350785        1.6931791271
 C          1.6349260032       -2.7980117460        1.8857696162
 C          2.2568205543       -1.9316660906        0.9936917830
 C          1.5484039690       -1.4195616236       -0.0849423323
 H          2.0491960172       -0.7610812239       -0.7730857770
 N          3.5839903209       -1.5515533315        1.1989227300
 S          4.5879211433       -0.7718215899        0.1370083783
 O          4.3448590617       -1.1919766272       -1.2240084851
 O          5.9191067012       -1.0314378688        0.6431385902
 C          4.2682067754        0.9809668154        0.2813078712
 C          3.0557985771        1.4848594150        0.7066032391
 C          2.8897476477        2.8617878900        0.7584702166
 C          3.9230739953        3.7077361613        0.3912520640
 C          5.1367750998        3.1855083361       -0.0302899882
 C          5.3102239890        1.8129753260       -0.0864279149
 H          6.2383991369        1.3648074309       -0.4029757832
 H          5.9434995411        3.8414346511       -0.3157316125
 H          3.7822541729        4.7763777660        0.4335817209
 H          1.9389633814        3.2543020608        1.0831907665
 H          2.2385915442        0.8375103650        0.9815187862
 H          4.0591878348       -1.9429276801        1.9951048952
 H          2.1842367892       -3.1965506432        2.7248186538
 H         -0.1833326465       -3.7996624578        2.3844191940
 H         -1.4465295307       -2.8459885392        0.4915680882
 H         -1.1455906331       -1.9486059171       -1.8919232770
 C          0.2362985882       -0.4377912071       -2.4369910279
 C         -0.3437907748        0.6283105298       -3.3156398134
 C          0.6954488891        0.9818563767       -2.2962572473
 H          1.6904619961        1.2310598232       -2.6372464562
 H          0.3909205379        1.5230692152       -1.4146743496
 H         -0.0689360926        0.6388575181       -4.3596279663
 H         -1.3648110703        0.9280891387       -3.1287795731
 H          0.9333568287       -1.1238062934       -2.9102794885
