  62
        -98.93833784
 C         -1.9298281665       -1.0255617331        0.2819333352
 C         -2.2712811224        0.1492369493       -0.4253129720
 C         -3.5812989014        0.7613523994       -0.1156157092
 C         -4.3601719992        0.2006613737        0.8272055098
 C         -5.7305104082        0.6235678273        1.2851710796
 C         -6.8335098072        0.2418018195        0.2848527868
 C         -6.4993309974        0.5235955564       -1.1775482961
 H         -5.5877353265       -0.0129574900       -1.4465694435
 H         -7.3086196242        0.1141744609       -1.7878395518
 C         -6.3448016466        1.9995473541       -1.5364087749
 H         -6.2010692418        2.0569883521       -2.6184804910
 H         -7.2717533756        2.5255515567       -1.2971582346
 C         -5.1823921120        2.7335653633       -0.8643519726
 H         -5.4203288073        2.9880664705        0.1649912591
 H         -5.0475020414        3.6816573122       -1.3934965835
 C         -3.8438997006        2.0049487797       -0.9314552749
 H         -3.6370872382        1.7334885749       -1.9729896907
 H         -3.0505363484        2.7105099414       -0.6553372610
 H         -7.0214455403       -0.8302369634        0.3825968872
 H         -7.7473409625        0.7706623753        0.5608122700
 H         -5.9195569713        0.1024178455        2.2263724769
 H         -5.7444885564        1.6899458033        1.4899724056
 O         -3.9837292656       -0.9243871283        1.4985938055
 C         -2.7871785889       -1.5604987627        1.2491550987
 O         -2.5966826001       -2.5831281226        1.9374475915
 H          0.4699650898        0.6282232222       -0.4428052520
 C          0.9726566879        0.1253337071        0.3698813260
 C          0.5205598568       -1.1210754978        0.7797592066
 C          1.1662514383       -1.7473541512        1.8391596388
 C          2.2336518127       -1.1372311621        2.4753918897
 C          2.6799494476        0.1061416268        2.0659047246
 C          2.0386592559        0.7401921080        1.0093432279
 N          2.4971720072        1.9989749207        0.5752292075
 S          4.1325227642        2.1002202021        0.2231956894
 O          4.8744173076        2.2972057400        1.4439023797
 O          4.2546923501        3.1489067607       -0.7648039494
 C          4.5374773308        0.5122829234       -0.4824892986
 C          3.9393333432        0.1641531631       -1.6774227297
 C          4.1891565810       -1.0890622167       -2.2112052840
 C          5.0239684597       -1.9707815591       -1.5419046569
 C          5.6201686417       -1.6044599749       -0.3455566136
 C          5.3742124642       -0.3517408544        0.1934666166
 H          5.8143206149       -0.0275739507        1.1222319594
 H          6.2704882734       -2.2914064523        0.1715077618
 H          5.2101912352       -2.9487674128       -1.9567981722
 H          3.7282924030       -1.3739638077       -3.1434016192
 H          3.2964645790        0.8736028814       -2.1737634463
 H          1.9430433570        2.3834506506       -0.1767179841
 H          3.5087995415        0.5985032293        2.5485229040
 H          2.7235265825       -1.6348423330        3.2982758841
 H          0.8162667171       -2.7139017671        2.1713889238
 C         -0.6321484527       -1.7911602330        0.0709139509
 H         -0.7910213161       -2.7687354349        0.5448297792
 C         -0.3054595133       -2.0163136744       -1.3935614263
 C          0.6547651156       -3.1053454502       -1.7614609387
 C         -0.8035174857       -3.2538812135       -2.0742373109
 H         -1.1232960734       -3.1822234101       -3.1031001540
 H         -1.3848678621       -3.9489829393       -1.4857027215
 H          1.0647084860       -3.7013156599       -0.9604865507
 H          1.3399001932       -2.9333105384       -2.5767377573
 H         -0.2840257778       -1.1048249150       -1.9754373267
 O         -1.5379153559        0.6935488834       -1.2959327479
