  62
        -98.93928837
 C          2.4123413994        1.2413233864        0.0110285198
 C          3.2243011747        0.5800893786        0.9595354493
 C          3.9873180844       -0.5834653036        0.4743226899
 C          3.8616636359       -0.9542670134       -0.8120124590
 C          4.5031346064       -2.1325462245       -1.4918262221
 C          3.5705549761       -3.3555078317       -1.4602897811
 C          3.6919793339       -4.2276309557       -0.2110121425
 H          2.8937773388       -4.9723098285       -0.2567733519
 H          4.6428818141       -4.7636834699       -0.2390203287
 C          3.5913645469       -3.4801425433        1.1212218022
 H          2.7835763810       -2.7471990980        1.0696225418
 H          3.3199016820       -4.2045031204        1.8917173648
 C          4.9019269079       -2.7890230670        1.5265469413
 H          5.7077472912       -3.1542369045        0.8904487107
 H          5.1598109169       -3.0749425455        2.5483285988
 C          4.8704713759       -1.2542153745        1.4913745144
 H          4.5166863352       -0.8757821425        2.4557236778
 H          5.8917012947       -0.8796279319        1.3656479980
 H          3.7829099432       -3.9805871357       -2.3300215596
 H          2.5421534647       -2.9970552272       -1.5616413356
 H          5.4655527626       -2.3602365986       -1.0433511257
 H          4.6588587487       -1.8423533078       -2.5329185287
 O          3.0522756663       -0.2988338865       -1.6900822904
 C          2.3088830191        0.8058945994       -1.3099712600
 O          1.6152054449        1.2992612540       -2.2187635555
 O          3.3010727520        0.9389559744        2.1666620968
 C          1.6029429063        2.4494346426        0.4453332099
 C          0.1314476155        2.2003827222        0.2210005299
 C         -0.7199613970        3.1249435472       -0.3689550515
 C         -2.0589003736        2.8260066123       -0.5543625620
 C         -2.5787678626        1.6096407879       -0.1530187539
 C         -1.7371720505        0.6780325724        0.4409531730
 C         -0.3984732191        0.9825175765        0.6298330184
 H          0.2562610668        0.2531531750        1.0922604611
 N         -2.2566853688       -0.5594489905        0.8630621667
 S         -3.1488833434       -1.4582164506       -0.2428103618
 O         -3.0026410555       -2.8322247041        0.1876067609
 O         -2.7642020588       -1.1644920213       -1.6037166842
 C         -4.8252596086       -0.9344409140        0.0506657897
 C         -5.3493544879       -1.1125503193        1.3160825352
 C         -6.6506918689       -0.7066239182        1.5645617125
 C         -7.4019717487       -0.1338523800        0.5489920815
 C         -6.8627450524        0.0342276988       -0.7172108808
 C         -5.5614166368       -0.3700616964       -0.9724781519
 H         -5.0984479714       -0.2561781569       -1.9400190541
 H         -7.4483791883        0.4786211744       -1.5058425303
 H         -8.4142038290        0.1826716937        0.7451415666
 H         -7.0739070692       -0.8372171608        2.5474661512
 H         -4.7331323617       -1.5656917354        2.0744989510
 H         -1.5727778665       -1.1475368317        1.3176111545
 H         -3.6189917011        1.3713074180       -0.3019142587
 H         -2.7071104125        3.5519501777       -1.0209089026
 H         -0.3336722168        4.0766384361       -0.6943434405
 H          1.7729257830        2.5414725952        1.5286965186
 C          2.1179574111        3.7001722311       -0.2354376556
 C          1.9929234122        5.0336706971        0.4372455908
 C          3.3341289112        4.3761858694        0.3206781226
 H          4.0555102581        4.7881004861       -0.3689161815
 H          3.7753878983        3.9477705997        1.2088172016
 H          1.7954118001        5.9020404209       -0.1728973142
 H          1.5255130882        5.0606748817        1.4097995916
 H          2.0189113647        3.6556735761       -1.3143876896
