  62
        -98.94279045
 C         -1.8096412299       -0.8440087907        0.3427725806
 C         -3.1531446899       -1.0984027709        0.7208794206
 C         -4.0486946102        0.0650327289        0.7589985103
 C         -3.5510105305        1.2851846389        0.4884957901
 C         -4.3610132508        2.5465672087        0.4220874298
 C         -4.8768603507        2.7983240883       -1.0019621403
 C         -5.5495305404        1.5831084380       -1.6408004301
 H         -4.8027784402        0.8000027182       -1.7923585399
 H         -5.8983134604        1.8871444977       -2.6301358202
 C         -6.7263150003        1.0124431979       -0.8369140801
 H         -7.5523677802        0.8092387175       -1.5216722202
 H         -7.0771180805        1.7531077879       -0.1173373503
 C         -6.4204754400       -0.2968417819       -0.1070964798
 H         -5.9846530298       -1.0140082319       -0.8076906197
 H         -7.3654489699       -0.7187226521        0.2452994902
 C         -5.4897219101       -0.1810379914        1.1065309802
 H         -5.5112089100       -1.1390121413        1.6344140104
 H         -5.8609175004        0.5922204286        1.7821122300
 H         -4.0320728807        3.0903614284       -1.6302241003
 H         -5.5814155909        3.6314213181       -0.9717129806
 H         -5.1971170108        2.4727864786        1.1147771697
 H         -3.7247404510        3.3810880889        0.7211146496
 O         -2.2439469205        1.5003174992        0.1978982101
 C         -1.3396640902        0.4485893694        0.1109981104
 O         -0.1800763403        0.8076822696       -0.1620749596
 H          1.7014409404       -1.8844090400       -0.7925111689
 C          1.6523360203       -1.7271947698        0.2716411611
 C          0.4368854803       -1.7424148400        0.9375811810
 C          0.4241732401       -1.4980353297        2.3091867510
 C          1.5950366300       -1.2396544793        2.9938261110
 C          2.8066763800       -1.2222741491        2.3246867011
 C          2.8319048402       -1.4662617794        0.9575258512
 N          4.0542162002       -1.4925517592        0.2586370713
 S          4.3096020801       -0.4808659794       -1.0506737889
 O          3.3019419502       -0.7050531499       -2.0526774890
 O          5.6763346002       -0.7420307991       -1.4500237788
 C          4.2044458496        1.1658680807       -0.3722020393
 C          2.9676809795        1.6965689505       -0.0654042595
 C          2.9138000591        2.9493172606        0.5278330203
 C          4.0819449389        3.6427738209        0.8029037902
 C          5.3157140791        3.0928104212        0.4880814204
 C          5.3796129994        1.8407716111       -0.1004870793
 H          6.3148211396        1.3737472812       -0.3644092391
 H          6.2238095589        3.6335132814        0.7012098004
 H          4.0294810786        4.6162742210        1.2647508100
 H          1.9495203490        3.3671851704        0.7703997301
 H          2.0658616896        1.1470262002       -0.2844361694
 H          4.8639061202       -1.4520691689        0.8625015413
 H          3.7250438799       -1.0238051388        2.8565718011
 H          1.5665999598       -1.0492005091        4.0560588210
 H         -0.5235232700       -1.5103100298        2.8307453809
 C         -0.8712218296       -2.0325311604        0.2461898710
 H         -1.3810560495       -2.8289698305        0.8148242411
 C         -0.6922330994       -2.5605867207       -1.1695121689
 C         -1.7808374493       -2.4299922712       -2.1913512190
 C         -0.5095155895       -1.6535399709       -2.3475402491
 H          0.1899980106       -1.9461390209       -3.1173015490
 H         -0.5265030898       -0.5897689808       -2.1689723693
 H         -2.6744200895       -1.8937436613       -1.9059849592
 H         -1.9643647391       -3.2609563213       -2.8557481789
 H         -0.1320724691       -3.4910343905       -1.1853861587
 O         -3.5812154896       -2.2459868510        1.0157612508
