  62
        -98.94417102
 C         -2.6352560354       -1.0961249478        0.1964038433
 C         -2.7451679098       -0.2921547611       -0.9641002933
 C         -3.5646825166        0.9206543036       -0.8251452403
 C         -4.1499241377        1.1906914120        0.3559971709
 C         -4.9588554739        2.4200394925        0.6510779296
 C         -4.0753757443        3.5438932107        1.2110354846
 C         -2.8103556576        3.8013416968        0.3919085446
 H         -2.2797669312        4.6306411010        0.8650072192
 H         -2.1593297214        2.9260382307        0.4562973055
 C         -3.0666785741        4.1324963384       -1.0850401928
 H         -4.1053654241        4.4356642325       -1.2208783504
 H         -2.4412305605        4.9821980742       -1.3663918297
 C         -2.7391399562        2.9963495801       -2.0558780333
 H         -1.7295055609        2.6254999631       -1.8606830483
 H         -2.7476044572        3.4035454249       -3.0702782129
 C         -3.7020452020        1.8025079909       -2.0342513865
 H         -4.7297215545        2.1555282159       -2.1400480563
 H         -3.4640739743        1.1693364616       -2.8938612176
 H         -3.7766103721        3.2759521981        2.2274042409
 H         -4.6697546503        4.4578426174        1.2623438189
 H         -5.7177273401        2.1633291182        1.3920829688
 H         -5.4522047750        2.7513013149       -0.2604692340
 O         -4.0242646858        0.3907864021        1.4468690524
 C         -3.2550346863       -0.7610185875        1.3989721602
 O         -3.1976646819       -1.3877470337        2.4777262276
 O         -2.1871039620       -0.5688625711       -2.0567877456
 C         -1.7975831288       -2.3607187560        0.1585265803
 C         -0.3702650360       -2.0353392970       -0.2132556777
 C          0.3780743452       -2.7989213477       -1.0993079749
 C          1.6895687228       -2.4587334162       -1.3837401030
 C          2.2827630247       -1.3576300678       -0.7949679864
 C          1.5487786607       -0.5948867415        0.1042580933
 C          0.2381495264       -0.9424414635        0.3921212190
 H         -0.3306954878       -0.3488224465        1.0988819202
 N          2.1405871822        0.5318015133        0.7038515169
 S          3.6210356913        0.3254062046        1.4718878896
 O          3.7711891792       -1.0201872605        1.9760130865
 O          3.6898446997        1.3893735052        2.4499297169
 C          4.8180390665        0.6362533415        0.1914326708
 C          5.7938775630       -0.3024286075       -0.0806792464
 C          6.7243831079       -0.0328922580       -1.0723611921
 C          6.6627048859        1.1637753929       -1.7697761520
 C          5.6771776434        2.0967320353       -1.4828458949
 C          4.7450715268        1.8344582997       -0.4916355226
 H          3.9660772375        2.5333462791       -0.2360639184
 H          5.6320188994        3.0259759835       -2.0276501247
 H          7.3869478558        1.3711003890       -2.5416474867
 H          7.4914780835       -0.7564882595       -1.2966740238
 H          5.7982711042       -1.2213064961        0.4835802338
 H          1.5099944224        1.0512974319        1.2973073618
 H          3.3009018797       -1.0852370381       -1.0202730994
 H          2.2568706578       -3.0585992835       -2.0787903979
 H         -0.0667340976       -3.6599107890       -1.5703813273
 H         -1.7956009803       -2.7560114733        1.1857105490
 C         -2.4413780297       -3.3836719792       -0.7548281765
 C         -2.2895336144       -4.8483768977       -0.4784299783
 C         -3.6063653038       -4.1736850283       -0.2418209068
 H         -4.4243346810       -4.3834683804       -0.9144562335
 H         -3.9156547729       -3.9931161875        0.7778330237
 H         -2.2068069893       -5.5256490852       -1.3150788841
 H         -1.7077018646       -5.1375840031        0.3838651076
 H         -2.4749681203       -3.0549881123       -1.7870317602
