  62
        -98.93785925
 C         -2.5879793200       -1.1424080542        0.5103681828
 C         -3.4442205635       -0.8532604908       -0.5812697168
 C         -4.5961636129        0.0129379059       -0.2770752516
 C         -4.7745195244        0.4712167345        0.9741594959
 C         -5.8672322197        1.4074262971        1.4002291969
 C         -5.4196187302        2.8715069984        1.2872740038
 C         -4.7808798053        3.2203012123       -0.0571050354
 H         -4.5340351820        4.2839317859       -0.0332108174
 H         -3.8396563713        2.6746345308       -0.1568513699
 C         -5.6674554300        2.9284017497       -1.2758280118
 H         -5.6195342197        3.7815873165       -1.9557973864
 H         -6.7065182436        2.8231345167       -0.9616071886
 C         -5.2539619017        1.6945369594       -2.0800938811
 H         -5.8013904650        1.7064672753       -3.0263708324
 H         -4.1888438399        1.7525785657       -2.3176929218
 C         -5.5254152824        0.3406234358       -1.4121867868
 H         -6.5658252261        0.2934407108       -1.0844181460
 H         -5.3656508130       -0.4377153821       -2.1641491105
 H         -6.2873645183        3.5114929097        1.4572998473
 H         -4.6896370617        3.0718552786        2.0749930433
 H         -6.1179310545        1.1923544095        2.4403820397
 H         -6.7465827867        1.2365672857        0.7822740030
 O         -3.9360890791        0.1660835543        1.9979301179
 C         -2.8270583573       -0.6336575756        1.7899944814
 O         -2.1388718565       -0.8290532974        2.8130247768
 O         -3.2760936024       -1.2822602749       -1.7506507975
 C         -1.3498261269       -2.0157929637        0.3861720103
 C         -0.1585309892       -1.1893652512       -0.0252047285
 C         -0.1886553321       -0.3947668235       -1.1673190246
 C          0.9163482714        0.3543526613       -1.5278226936
 C          2.0673285602        0.3332486966       -0.7590535043
 C          2.1074178765       -0.4533937511        0.3837330308
 C          0.9977217538       -1.2096318171        0.7404226436
 H          1.0288883267       -1.8128116375        1.6382976572
 N          3.2672094258       -0.4653051640        1.1759880694
 S          4.7444277703       -0.7439324830        0.4272717673
 O          4.5841350779       -1.5417028358       -0.7659681243
 O          5.5928557466       -1.2939826435        1.4614579606
 C          5.3270238623        0.8839079890        0.0037430001
 C          5.4682468945        1.8092564815        1.0192809127
 C          5.9275802423        3.0789613786        0.7081029553
 C          6.2390689050        3.3990615798       -0.6051254457
 C          6.0958997436        2.4574298327       -1.6126252634
 C          5.6360091309        1.1855664106       -1.3080908457
 H          5.5054073623        0.4226833159       -2.0591455267
 H          6.3397512933        2.7079499380       -2.6325784334
 H          6.5962092756        4.3882753463       -0.8444587986
 H          6.0408902911        3.8137683872        1.4888845517
 H          5.2197443637        1.5196626092        2.0267528835
 H          3.1807991022       -1.0133353037        2.0196282195
 H          2.9290872438        0.9182944426       -1.0357226675
 H          0.8810447076        0.9647869980       -2.4175059627
 H         -1.0848368134       -0.3781929240       -1.7688322822
 H         -1.1585881980       -2.3833707216        1.4070276340
 C         -1.5661396604       -3.2392462520       -0.4947868402
 C         -0.8923491933       -3.4529778425       -1.8133587028
 C         -0.4774823498       -4.2638206502       -0.6250120784
 H         -0.7408495376       -5.3100487983       -0.5879260049
 H          0.4780609142       -4.0334450074       -0.1763238731
 H         -1.4663966652       -3.9276846545       -2.5942864987
 H         -0.2120361926       -2.6974892847       -2.1731551604
 H         -2.5787204523       -3.6203572503       -0.4104502337
