  62
        -98.93666206
 C          2.2410473589        1.3965754085        0.4264362780
 C          2.3914459960        0.5194811549       -0.6718636749
 C          3.2393816442       -0.6697724111       -0.4553152934
 C          3.7734300438       -0.8802134208        0.7610935576
 C          4.6642973074       -2.0066865712        1.2202943553
 C          4.2561099691       -3.4237605952        0.7881119664
 C          5.1983159548       -4.0370650309       -0.2490697374
 H          6.2239605502       -3.7668667422        0.0104643164
 H          5.1223224825       -5.1250123385       -0.1892255230
 C          4.9197564045       -3.6337129953       -1.6959082760
 H          5.7352047352       -4.0228363950       -2.3100630964
 H          3.9995991283       -4.1154471407       -2.0340925329
 C          4.7942430352       -2.1290989493       -1.9442376630
 H          5.0073853096       -1.9472522434       -2.9996705497
 H          5.5413526387       -1.5827684735       -1.3698631313
 C          3.3939374053       -1.5699750874       -1.6506611460
 H          2.6719266671       -2.3884377775       -1.5672318022
 H          3.0553624821       -0.9631437445       -2.4965170724
 H          3.2328171961       -3.4177208924        0.4141730718
 H          4.2704560987       -4.0600289428        1.6746327325
 H          5.6849563824       -1.7983757400        0.8904639581
 H          4.6689291268       -1.9379681243        2.3105081795
 O          3.5722058785       -0.0209893820        1.8023630621
 C          2.8094339997        1.1245036859        1.6686640878
 O          2.7048086915        1.8006110607        2.7129310265
 O          1.8496773164        0.7180321279       -1.7905885997
 C          1.3904473449        2.6475181496        0.2912036506
 C         -0.0252287858        2.2562586646       -0.0589921817
 C         -0.7401957324        2.8064293259       -1.1137394827
 C         -2.0264299700        2.3734134829       -1.3881786448
 C         -2.6285564656        1.3963635343       -0.6173860943
 C         -1.9252891618        0.8456052297        0.4463915523
 C         -0.6386857322        1.2812920208        0.7188035934
 H         -0.0882646383        0.8468462007        1.5456615976
 N         -2.5343418120       -0.1406903381        1.2469205355
 S         -3.1161484522       -1.5117800948        0.4656023074
 O         -3.1204259687       -2.5476978348        1.4764162324
 O         -2.3722429489       -1.7947309861       -0.7402521391
 C         -4.7974493407       -1.0835090379        0.0668323668
 C         -5.6340270931       -0.7070915251        1.0994785566
 C         -6.9463965767       -0.3712264467        0.8080359644
 C         -7.3976564460       -0.4193903361       -0.5027580046
 C         -6.5460180413       -0.8026985771       -1.5275176979
 C         -5.2315437581       -1.1393763489       -1.2430151415
 H         -4.5305311214       -1.4364726573       -2.0067895138
 H         -6.8985055956       -0.8396583137       -2.5457512973
 H         -8.4193019190       -0.1564522298       -0.7271379419
 H         -7.6116158729       -0.0726482944        1.6021029423
 H         -5.2433430627       -0.6859384475        2.1031243377
 H         -1.9700163776       -0.4125685602        2.0396946504
 H         -3.6276197868        1.0539536188       -0.8320740594
 H         -2.5674503072        2.8031732434       -2.2172724997
 H         -0.2865176781        3.5647351981       -1.7300742735
 H          1.3779731392        3.1136398266        1.2874080424
 C          2.0197893661        3.6118750192       -0.6913942020
 C          1.7748386922        5.0844135094       -0.5624046529
 C          3.1163572840        4.5145432680       -0.2148162146
 H          3.9483345403        4.7078650260       -0.8751048166
 H          3.3933200119        4.4499648237        0.8276508200
 H          1.6884820619        5.6738226871       -1.4625925021
 H          1.1415505841        5.4165803217        0.2461416383
 H          2.1154495359        3.1902924988       -1.6851342430
