  62
        -98.94581117
 C          1.5665554801        1.4356900698       -0.1866621187
 C          1.5598176296        0.0478811800       -0.4687987696
 C          2.8804237794       -0.5670541805       -0.6681844397
 C          3.9834163597        0.1999805190       -0.5955014289
 C          5.3897767195       -0.3084511415       -0.7241490388
 C          5.9706908690       -0.6857397727        0.6458642911
 C          5.0509823984       -1.5745867128        1.4833262503
 H          5.5764274580       -1.7990087337        2.4142596203
 H          4.1542606185       -1.0099407426        1.7488840904
 C          4.6390828980       -2.8857167822        0.7992960693
 H          5.3200797582       -3.1025199619       -0.0245443806
 H          4.7340059874       -3.7003196327        1.5204672388
 C          3.1978173481       -2.9094089212        0.2862399889
 H          2.5192730580       -2.5995773515        1.0849892389
 H          2.9485675678       -3.9412376210        0.0252632481
 C          2.9148344589       -2.0430983103       -0.9474495706
 H          3.6383250690       -2.2719624301       -1.7324294906
 H          1.9148061189       -2.2983402996       -1.3096574511
 H          6.9252361388       -1.1915287330        0.4890519511
 H          6.1617444092        0.2328008569        1.2058198718
 H          5.3991443794       -1.1730586711       -1.3849007793
 H          6.0027348600        0.4802335185       -1.1637702581
 O          3.9457765402        1.5343339489       -0.3432499180
 C          2.7411368704        2.1823502092       -0.1180388979
 O          2.8482276009        3.4005405290        0.1321541129
 O          0.5110419194       -0.6399669195       -0.5467290204
 C          0.2475319604        2.1501162102        0.0448547014
 C         -0.5368102402        1.4291312498        1.1133187407
 C          0.0909100793        1.1127328387        2.3159980906
 C         -0.5814037113        0.4188107784        3.3025517400
 C         -1.8903206014        0.0123571891        3.1075977993
 C         -2.5307475109        0.3383902801        1.9189496694
 C         -1.8602107404        1.0589834205        0.9395172900
 H         -2.3899061700        1.3196393413        0.0397521501
 N         -3.8580718810       -0.0464824092        1.6942473987
 S         -4.4236722907       -0.3369455079        0.1515815284
 O         -4.6852964700        0.9117878927       -0.5211025409
 O         -5.5791789211       -1.1857078075        0.3576994475
 C         -3.1587907209       -1.2483850079       -0.7145612719
 C         -2.6416756115       -2.3880224985       -0.1338626125
 C         -1.6828150216       -3.1126979684       -0.8207652727
 C         -1.2629650511       -2.6913575378       -2.0716907023
 C         -1.7941851904       -1.5473153072       -2.6430698117
 C         -2.7506427003       -0.8163630672       -1.9589813615
 H         -3.1829597798        0.0856683532       -2.3637466010
 H         -1.4579488500       -1.2157194267       -3.6131321714
 H         -0.5110096512       -3.2536464578       -2.6030753924
 H         -1.2584335021       -3.9983629289       -0.3756898431
 H         -2.9880068619       -2.6948164690        0.8400099672
 H         -4.2479562515       -0.6823085794        2.3733353982
 H         -2.4112881619       -0.5474743512        3.8691130888
 H         -0.0793026717        0.1783609776        4.2278117100
 H          1.1206571094        1.4117005182        2.4608910811
 H          0.4972662207        3.1569567698        0.4100454921
 C         -0.5043876692        2.2737165214       -1.2642649988
 C         -1.4797691987        3.3913534119       -1.4746286283
 C         -0.1691884884        3.3925081918       -2.2017800379
 H         -0.1662926882        3.1933413025       -3.2629101081
 H          0.5913497818        4.0924482213       -1.8871132473
 H         -2.3839243886        3.1923192327       -2.0308785387
 H         -1.6122476086        4.0968156914       -0.6680431879
 H         -0.7330162295        1.3072886217       -1.7002097695
