  62
        -98.94911669
 C          1.2936053195        1.5336159212        0.5474987384
 C          2.2348086135        1.1836878132       -0.4510278686
 C          3.1983624608        0.1410429026       -0.0787888467
 C          3.1492724916       -0.4127790991        1.1460120337
 C          4.0475853273       -1.5033921832        1.6616182581
 C          3.5857330634       -2.9115316928        1.2607784395
 C          3.8220100673       -3.2809869740       -0.2043475886
 H          4.8580444382       -3.0687714323       -0.4720711915
 H          3.6762682662       -4.3599469557       -0.2877393351
 C          2.8770964427       -2.5834589749       -1.1932212073
 H          2.5070887816       -3.3143984095       -1.9168857027
 H          1.9997823888       -2.2088250210       -0.6590048089
 C          3.5158445050       -1.4449848469       -1.9901370167
 H          4.2840009166       -1.8513234384       -2.6527506830
 H          2.7404198963       -0.9884903239       -2.6109934484
 C          4.1477549585       -0.3402439967       -1.1336084361
 H          5.0730721099       -0.6966457268       -0.6816475630
 H          4.3772318077        0.5063893819       -1.7855999223
 H          2.5203627341       -3.0088687375        1.4863265682
 H          4.1273280434       -3.6250044991        1.8866705184
 H          5.0682728637       -1.3390636539        1.3152302389
 H          4.0326339865       -1.4324241725        2.7514192079
 O          2.2489993431       -0.0270352333        2.0882598594
 C          1.2721403496        0.9106659708        1.7943698804
 O          0.4528969590        1.1058842449        2.7173174391
 H         -0.3684023032       -0.0762623537       -0.1852699410
 C         -0.8832054127        0.5445769511       -0.9006085899
 C         -0.7010419849        1.9192281954       -0.8690779799
 C         -1.3543567085        2.6917602672       -1.8215536933
 C         -2.1521961910        2.0896307927       -2.7797697962
 C         -2.3305382266        0.7175910722       -2.8040678665
 C         -1.6833500680       -0.0629691630       -1.8531998418
 N         -1.8118396418       -1.4594546639       -1.8330631796
 S         -1.8149730537       -2.2771453558       -0.3745754050
 O         -0.4969056139       -2.2932492831        0.2078948650
 O         -2.3757128655       -3.5715845286       -0.6997635803
 C         -2.9653740705       -1.3696550651        0.6429994987
 C         -4.3051296019       -1.4763249298        0.3187253880
 C         -5.2347844882       -0.7510486944        1.0440756822
 C         -4.8112448873        0.0732225008        2.0762266709
 C         -3.4655646158        0.1659632074        2.3927333475
 C         -2.5297077162       -0.5610085674        1.6721048167
 H         -1.4783449450       -0.4974106602        1.9068999491
 H         -3.1250841087        0.8025434143        3.1940212892
 H         -5.5324896601        0.6438840463        2.6396106727
 H         -6.2826915683       -0.8273342373        0.8030042366
 H         -4.5938432701       -2.1379716245       -0.4817563736
 H         -2.4796954818       -1.8428393059       -2.4848362043
 H         -2.9516077680        0.2540352397       -3.5548091452
 H         -2.6475976345        2.6999563911       -3.5194557976
 H         -1.2314221814        3.7625603573       -1.8187042541
 C          0.1700550607        2.4996305404        0.2223343045
 H         -0.4429884895        2.5714513804        1.1339469219
 C          0.7096929521        3.8750950979       -0.1109236449
 C         -0.0735337131        5.1024931772        0.2436483365
 C          1.1686467597        4.7598219886        1.0080010076
 H          2.0524153770        5.3620167605        0.8605548648
 H          1.0635916495        4.3793967625        2.0139861167
 H         -0.0411296093        5.9463651257       -0.4289546578
 H         -1.0231106089        4.9664378983        0.7389865418
 H          1.2911862339        3.8821151008       -1.0251809896
 O          2.2641696134        1.7026177630       -1.5972582234
