  62
        -98.94429929
 C          2.1067498013        1.3935510939        0.0124091228
 C          2.4176084616        0.4319722525       -0.9793035462
 C          3.7615078031       -0.1614615632       -0.9021381864
 C          4.6083512521        0.2282301814        0.0669674234
 C          5.9783894516       -0.3400159028        0.2938574406
 C          5.9343077998       -1.5206652401        1.2740465097
 C          4.8673003015       -2.5631251153        0.9391814011
 H          4.9510720901       -3.3629995193        1.6781828657
 H          3.8783445159       -2.1153918921        1.0636268305
 C          4.9803511583       -3.1575757764       -0.4716723437
 H          5.9781143292       -2.9743587597       -0.8721438519
 H          4.8510596733       -4.2400410916       -0.4064849467
 C          3.9344350365       -2.6436855685       -1.4628366052
 H          2.9373968324       -2.7408651349       -1.0249219777
 H          3.9651122223       -3.2820973501       -2.3500030009
 C          4.1171003617       -1.1952125497       -1.9337653411
 H          5.1390814657       -1.0501383478       -2.2891854463
 H          3.4350006842       -1.0305907420       -2.7729381385
 H          6.9171713384       -1.9951984673        1.2874030649
 H          5.7304257844       -1.1328316340        2.2748064517
 H          6.3965041418       -0.6602127503       -0.6584660401
 H          6.6108214092        0.4445413561        0.7127003643
 O          4.2845565146        1.1662900396        0.9917169699
 C          3.0351560994        1.7593493415        0.9939870164
 O          2.8713960409        2.5963358404        1.9037720874
 O          1.6321907217        0.0668361795       -1.8959398168
 C          0.7625365926        2.1020208275        0.1000839925
 C         -0.2786018031        1.2087032925        0.7319309926
 C         -0.8358971072        1.5272588797        1.9648037406
 C         -1.7895883717        0.7062412873        2.5415291913
 C         -2.2078741936       -0.4459439548        1.9007542378
 C         -1.6569943272       -0.7715601654        0.6675420082
 C         -0.7069084345        0.0566404382        0.0875788299
 H         -0.2730831337       -0.2084752732       -0.8650309220
 N         -2.0767860466       -1.9373013561        0.0047660160
 S         -3.7212896794       -2.2324442807       -0.0723160900
 O         -4.1587605202       -2.8537708343        1.1536542809
 O         -3.9168718199       -3.0105227756       -1.2755151595
 C         -4.4799924411       -0.6249348580       -0.2337092122
 C         -5.3911391392       -0.1971785034        0.7100901453
 C         -5.9483185082        1.0650473780        0.5807168641
 C         -5.5823994498        1.8751051986       -0.4826596639
 C         -4.6675860152        1.4295245437       -1.4245313761
 C         -4.1093238667        0.1678644000       -1.3019271748
 H         -3.3975738740       -0.2066023663       -2.0202697788
 H         -4.3840274829        2.0608278023       -2.2512423463
 H         -6.0119053248        2.8596173227       -0.5799926336
 H         -6.6614948164        1.4129515973        1.3104952304
 H         -5.6430967827       -0.8580634734        1.5234541333
 H         -1.6301983268       -2.0770861167       -0.8897577857
 H         -2.9407924184       -1.1034095028        2.3399136159
 H         -2.2100200471        0.9644475461        3.5013837061
 H         -0.5037962663        2.4178919997        2.4781385897
 H          0.9238716978        2.9534407815        0.7741105227
 C          0.2855468197        2.6359148865       -1.2374704864
 C         -0.7424685045        3.7250191129       -1.2585676198
 C          0.6731739876        4.0222674217       -1.6509606591
 H          0.8956363146        4.2060840058       -2.6914438821
 H          1.2840096988        4.5950709639       -0.9680985479
 H         -1.4948995880        3.7069281606       -2.0316107715
 H         -1.0945366644        4.0990216397       -0.3092993629
 H          0.2404084678        1.8826583306       -2.0123538318
