  62
        -98.94325312
 C         -1.3174243028       -1.6857493800       -0.5661641887
 C         -1.3135604101       -0.3498917280       -1.0420140818
 C         -2.5913628933        0.3707528188       -0.9245769651
 C         -3.6792170400       -0.2519056351       -0.4383537685
 C         -5.0722236974        0.3143454856       -0.3626380605
 C         -5.3567475178        1.1566977105        0.8870707397
 C         -4.6672082153        2.5205286162        0.9134999511
 H         -4.8828048970        3.0552594973       -0.0120850450
 H         -5.1100182996        3.0919521528        1.7316404377
 C         -3.1496533255        2.4455427570        1.1269085214
 H         -2.8799896540        1.4604683456        1.5153343412
 H         -2.8454235121        3.1714218341        1.8847731292
 C         -2.3062759960        2.7223080371       -0.1173982983
 H         -2.4353939616        3.7634463508       -0.4241122084
 H         -1.2616851108        2.5754959468        0.1690603298
 C         -2.6157056261        1.8167381992       -1.3172116872
 H         -3.5822832689        2.0820602542       -1.7467168324
 H         -1.8406571717        1.9678566924       -2.0727151860
 H         -5.0634296732        0.5845459329        1.7702524896
 H         -6.4366605766        1.3149121620        0.9356709036
 H         -5.2679263627        0.9113793376       -1.2541259207
 H         -5.7511284647       -0.5414200769       -0.3611559637
 O         -3.6419126814       -1.5354256886        0.0099300291
 C         -2.4635837579       -2.2625890892       -0.0130081453
 O         -2.5688796765       -3.4127422176        0.4616782869
 H          1.0258769369       -0.2697168659        0.1647704226
 C          1.3203661538       -1.0919392180        0.7956316662
 C          0.8223047270       -2.3621598291        0.5378277609
 C          1.1916878488       -3.4091970277        1.3743842711
 C          2.0362373818       -3.1853795364        2.4475120748
 C          2.5332358447       -1.9198035377        2.7001617255
 C          2.1728831843       -0.8656621807        1.8662930762
 N          2.7065902149        0.4107265117        2.0640767776
 S          2.0219709143        1.7909950390        1.4246243529
 O          2.7393562098        2.8648566620        2.0846907945
 O          0.5886541561        1.8127916551        1.5977449837
 C          2.4793802383        1.7761715173       -0.2950459767
 C          3.6419903164        1.1389874818       -0.6799414954
 C          4.0092486168        1.1663886711       -2.0153030284
 C          3.2162861874        1.8318009813       -2.9371143325
 C          2.0581464462        2.4750089629       -2.5324936532
 C          1.6848800247        2.4498630855       -1.1988600046
 H          0.7836537950        2.9276574341       -0.8507860188
 H          1.4383828612        2.9895071861       -3.2492396730
 H          3.5011496070        1.8476131548       -3.9775534234
 H          4.9086661899        0.6636460646       -2.3331026497
 H          4.2344932809        0.6248060810        0.0589010301
 H          3.2094550570        0.5658917718        2.9236422376
 H          3.1932805679       -1.7445345233        3.5358555928
 H          2.3101849574       -4.0044670047        3.0950629858
 H          0.7980095620       -4.3978596897        1.1884576129
 C         -0.1000256434       -2.5958795121       -0.6298712018
 H         -0.5056769929       -3.6153080208       -0.5295350803
 C          0.6069409357       -2.5270504513       -1.9786333237
 C          1.9648497910       -1.9355177614       -2.1905584445
 C          1.7810651150       -3.4201991196       -2.2538815986
 H          1.8432843307       -3.9146259126       -3.2113918411
 H          2.1595461748       -4.0044870479       -1.4284516307
 H          2.1296605034       -1.3876811622       -3.1056008450
 H          2.4834594269       -1.5194573452       -1.3418696297
 H         -0.1016910962       -2.3950401735       -2.7904048695
 O         -0.3225177328        0.2189263586       -1.5645445260
