  62
        -98.93820511
 C          1.8986379224        0.7586725569       -0.2257304239
 C          2.4725105924        0.0374095127        0.8469956989
 C          3.5966420291       -0.8515320618        0.5125677346
 C          3.9839827441       -0.9690043365       -0.7691607009
 C          5.0730783601       -1.8423257565       -1.3398125450
 C          6.4088038583       -1.8924992212       -0.5836571149
 C          6.7908181007       -0.6000818637        0.1527406289
 H          7.8118119916       -0.3264301538       -0.1196363503
 H          6.1398795007        0.2173074741       -0.1620357350
 C          6.7342745176       -0.7415118422        1.6759245638
 H          7.1737222932       -1.7018858714        1.9543529129
 H          7.3505113031        0.0415221560        2.1242572231
 C          5.3416116866       -0.6307412180        2.2953365090
 H          5.4262082743       -0.8703579597        3.3580617004
 H          4.9870428858        0.4012347787        2.2267441384
 C          4.2657259744       -1.5340581715        1.6708321769
 H          3.4856619242       -1.6951877207        2.4200957508
 H          4.6776075615       -2.4994248769        1.3865075462
 H          6.3921120467       -2.7146681504        0.1306672732
 H          7.1782145439       -2.1325240008       -1.3193637543
 H          5.2385229678       -1.4637203636       -2.3512383559
 H          4.6788313051       -2.8580353744       -1.4377124981
 O          3.3708618711       -0.2908940257       -1.7795279910
 C          2.3237149897        0.5869126224       -1.5423883531
 O          1.8736329522        1.1342748659       -2.5655716640
 O          2.0549865079        0.1218335340        2.0340273270
 C          0.7504834890        1.7102615586        0.0628245192
 C         -0.5046067680        1.1919699934       -0.5946110346
 C         -1.2463197348        1.9091276371       -1.5225909300
 C         -2.3759105865        1.3507954488       -2.0976529088
 C         -2.7961397855        0.0804133182       -1.7517947284
 C         -2.0716514619       -0.6379627074       -0.8076542899
 C         -0.9395996753       -0.0792841878       -0.2364764118
 H         -0.3716516376       -0.6409350981        0.4947876663
 N         -2.5069237627       -1.9191069395       -0.4281700248
 S         -4.1387544740       -2.1206094421       -0.1130316789
 O         -4.2094020549       -3.2004884596        0.8465501324
 O         -4.8488081091       -2.3335516383       -1.3497188414
 C         -4.6669267370       -0.5847865624        0.6269814367
 C         -5.6471256212        0.1715443224        0.0176458453
 C         -6.0169309891        1.3776755125        0.5910520591
 C         -5.3997180822        1.8063046700        1.7556455893
 C         -4.4193617672        1.0328515051        2.3585190737
 C         -4.0475186938       -0.1749061921        1.7911523094
 H         -3.2909138394       -0.7996814350        2.2386322454
 H         -3.9400213439        1.3669419255        3.2647731373
 H         -5.6831828080        2.7482405807        2.1979487824
 H         -6.7804212467        1.9797957269        0.1256092911
 H         -6.0973237788       -0.1975289151       -0.8894196198
 H         -1.9376422133       -2.3519068267        0.2839216145
 H         -3.6648102419       -0.3718732071       -2.2021570031
 H         -2.9355903497        1.9134219263       -2.8289315794
 H         -0.9335874594        2.8994450255       -1.8080940236
 H          0.6044489549        1.6634287124        1.1519321113
 C          1.1079724315        3.1297745121       -0.3195756451
 C          0.3982042319        4.2783904848        0.3308448096
 C          1.8274888213        3.9890710047        0.6749916776
 H          2.5930391240        4.6610785391        0.3170153856
 H          2.0451967896        3.5568327272        1.6409280868
 H          0.1819954729        5.1536812573       -0.2624519548
 H         -0.3570477389        4.0455274353        1.0658444084
 H          1.3944478234        3.2252308267       -1.3604830193
