  62
        -98.94046357
 C          1.7415800086        1.0914774103       -0.2422257416
 C          3.0840957548        1.3112153406        0.1418208251
 C          4.0592476858        0.2775978340       -0.2474338894
 C          3.6376244865       -0.8056012524       -0.9268188010
 C          4.3995572892       -1.9883249067       -1.4875620139
 C          5.8300051698       -2.2802052431       -1.0416944791
 C          5.9704338530       -2.7067017080        0.4191418360
 H          5.5230414826       -3.6968859749        0.5367477804
 H          7.0347456518       -2.7936920699        0.6482778593
 C          5.3161197940       -1.7813515422        1.4420516990
 H          4.2353520483       -1.7684984368        1.2867283999
 H          5.4932357185       -2.2029788737        2.4352237559
 C          5.8338026953       -0.3442568269        1.4492712848
 H          5.4057709755        0.1552295871        2.3226894820
 H          6.9194157510       -0.3446974514        1.5642444277
 C          5.4715963398        0.4972291071        0.2127912512
 H          5.5429022290        1.5528731798        0.4907100497
 H          6.1719445540        0.3269729439       -0.6013914007
 H          6.4722180764       -1.4305265269       -1.2538432212
 H          6.1856532157       -3.1074266543       -1.6620763824
 H          3.7765506471       -2.8652593299       -1.2853875606
 H          4.3972475763       -1.8536525005       -2.5749533461
 O          2.3279913795       -0.9717682646       -1.2768218633
 C          1.3532546082       -0.0458197920       -0.9457927989
 O          0.2075184868       -0.3503593865       -1.3262544285
 H         -2.0612204742        1.9994826562       -0.2549304986
 C         -1.7243840192        1.5114849429        0.6436697228
 C         -0.3797825334        1.4786785743        0.9762100991
 C          0.0011703747        0.8305666798        2.1497895572
 C         -0.9369800496        0.2238899622        2.9609701598
 C         -2.2775965006        0.2421321373        2.6147835890
 C         -2.6691192219        0.8887262763        1.4500602088
 N         -4.0273620793        0.9479209853        1.0819587526
 S         -4.5062451641        0.3411481779       -0.4043325359
 O         -3.8458002362        1.0560773030       -1.4640467962
 O         -5.9510187800        0.4228491992       -0.3819204130
 C         -4.0123180406       -1.3726638935       -0.3676079280
 C         -4.9573502611       -2.3184503420       -0.0168592759
 C         -4.5766397062       -3.6463877079        0.0808093371
 C         -3.2588337348       -4.0040633144       -0.1627792358
 C         -2.3234273774       -3.0417292418       -0.5087574109
 C         -2.6966465123       -1.7099697198       -0.6134620722
 H         -1.9767905045       -0.9538069532       -0.8854222906
 H         -1.2958703568       -3.3078511720       -0.7006642775
 H         -2.9585909608       -5.0372221025       -0.0842918844
 H         -5.3041746569       -4.3960362182        0.3475169376
 H         -5.9704462521       -1.9942979540        0.1590630191
 H         -4.6540201868        0.5997046303        1.7946690342
 H         -3.0137074870       -0.2356515318        3.2435371553
 H         -0.6242809340       -0.2727972476        3.8669897234
 H          1.0495770759        0.8111116760        2.4152163970
 C          0.6885428278        2.1203847111        0.1266050584
 H          1.2127888448        2.8674399038        0.7410078380
 C          0.1536133370        2.8031562540       -1.1138747632
 C         -0.4046218269        4.1908669041       -1.0241556909
 C          0.9140960473        3.9551886925       -1.6957684586
 H          0.9708637398        4.0452818048       -2.7702622233
 H          1.8128557914        4.2658164971       -1.1830730699
 H         -1.2579203023        4.4414633042       -1.6364765959
 H         -0.4023017344        4.6683265828       -0.0558742281
 H         -0.3122772517        2.1126630124       -1.8089458896
 O          3.4566585741        2.3303542804        0.7831410227
