  62
        -98.94951719
 C         -1.5816987105       -0.9021309446       -0.6992718391
 C         -1.3958040391       -1.6752608175        0.4718212819
 C         -0.3444660778       -2.7011149583        0.4020379262
 C          0.3888528271       -2.8198009214       -0.7191413786
 C          1.4849737623       -3.8245384645       -0.9296246078
 C          2.8620235036       -3.2798233375       -0.5287546750
 C          2.9020397122       -2.6381707984        0.8583500213
 H          3.9372358937       -2.3457162467        1.0521101502
 H          2.3111013565       -1.7192323297        0.8629554557
 C          2.4054305339       -3.5411304692        1.9953307005
 H          2.4217830173       -4.5857952873        1.6805991639
 H          3.0909603843       -3.4440685173        2.8399136568
 C          1.0102051000       -3.1816077619        2.5108064646
 H          0.8625776835       -3.6783793161        3.4739203101
 H          0.9572164568       -2.1028463766        2.6833246398
 C         -0.1599189567       -3.5837275168        1.6035554283
 H         -0.0505623821       -4.6287157402        1.3031312943
 H         -1.0806377612       -3.4879758784        2.1869112468
 H          3.1706987828       -2.5310270455       -1.2622469262
 H          3.5782439120       -4.1032813225       -0.5666414104
 H          1.2581107739       -4.7181931516       -0.3509322780
 H          1.5051834619       -4.0863462084       -1.9893609025
 O          0.2185757109       -2.0195884733       -1.8036049386
 C         -0.7626916358       -1.0398443855       -1.8184484793
 O         -0.8056137945       -0.3710942165       -2.8708171938
 H         -0.3068410993        1.2851636952       -0.2559315291
 C         -1.0497137299        1.6596068437        0.4331900191
 C         -2.3572642892        1.2029497441        0.3293087696
 C         -3.3082438827        1.7086338098        1.2052458030
 C         -2.9418370909        2.6215226698        2.1798557664
 C         -1.6282632614        3.0327680890        2.3123229336
 C         -0.6719191045        2.5418261089        1.4303153495
 N          0.6732907218        2.9310366915        1.5157923911
 S          1.8661771043        1.8099881380        1.1592060837
 O          1.4765215430        0.4698622370        1.5271869564
 O          3.0490236862        2.3277403407        1.8167381110
 C          2.0883321525        1.9476435163       -0.6008272936
 C          2.1900085824        0.8035828435       -1.3654539197
 C          2.3773818120        0.9208139313       -2.7329037337
 C          2.4642136178        2.1783899978       -3.3085653189
 C          2.3694684195        3.3197150804       -2.5262104445
 C          2.1804817344        3.2075527598       -1.1584005222
 H          2.0985828414        4.0702127103       -0.5184942899
 H          2.4371799618        4.2953964534       -2.9800782835
 H          2.6027761282        2.2662816775       -4.3745835833
 H          2.4347939459        0.0312016181       -3.3394294465
 H          2.0998708361       -0.1571719538       -0.8831212908
 H          0.9076513187        3.4932807761        2.3209695303
 H         -1.3408645070        3.7218327877        3.0918640251
 H         -3.6880987504        3.0038657562        2.8598356989
 H         -4.3318922830        1.3791566034        1.1351789642
 C         -2.6507434527        0.1766570220       -0.7378235515
 H         -2.5531851387        0.6660050528       -1.7182989865
 C         -4.0310483546       -0.4360389627       -0.6306456665
 C         -5.2090210775        0.2416052447       -1.2619816562
 C         -4.6604651742       -1.0183571397       -1.8592519875
 H         -5.2321816009       -1.9291463992       -1.7633513142
 H         -4.1022037424       -0.9487480041       -2.7816642073
 H         -6.1624157885        0.1943504503       -0.7577097472
 H         -5.0311729926        1.1683804471       -1.7860369289
 H         -4.1807632564       -0.9620658869        0.3050995656
 O         -2.0890589736       -1.5367584777        1.5137255959
