  62
        -98.94556850
 C         -1.9646099294       -1.5150642078       -0.0982142911
 C         -1.6889255086       -0.2653478526       -0.7048180279
 C         -2.8187337878        0.6741099912       -0.7642137489
 C         -4.0196512929        0.2938435337       -0.2914245632
 C         -5.2386894608        1.1681252572       -0.2444398352
 C         -5.3308866866        1.9171443675        1.0924013927
 C         -4.0340775182        2.6188672001        1.4960771231
 H         -4.2254912817        3.1387042907        2.4374115062
 H         -3.2678508841        1.8660512131        1.6953177514
 C         -3.5043656566        3.6175813799        0.4578539582
 H         -3.2019566230        4.5307498755        0.9748634961
 H         -4.3018361768        3.8879680942       -0.2352914787
 C         -2.2884400459        3.1289629412       -0.3318838424
 H         -1.8727603990        3.9855682225       -0.8686186759
 H         -1.5226609765        2.7673338445        0.3586704386
 C         -2.5584796913        2.0270803597       -1.3640132707
 H         -3.3810073685        2.3254108341       -2.0171537301
 H         -1.6563879589        1.9115995584       -1.9716164120
 H         -5.5903422264        1.1995941890        1.8744268730
 H         -6.1374357519        2.6494728518        1.0235627088
 H         -5.2041166091        1.8774173906       -1.0689244553
 H         -6.1208650119        0.5357428780       -0.3579918546
 O         -4.2517033461       -0.9293153018        0.2516819828
 C         -3.2286036690       -1.8540871882        0.3823311631
 O         -3.5641937293       -2.9224653221        0.9333193385
 H          1.7970287377       -2.3089543814       -0.7103282635
 C          1.5885286829       -1.8563396515        0.2462547442
 C          0.3081893464       -1.9038180311        0.7719900554
 C          0.0762052246       -1.3101501891        2.0103125346
 C          1.0948669665       -0.6758500694        2.6943114918
 C          2.3696406010       -0.6164607332        2.1578737938
 C          2.6121437685       -1.2088835778        0.9269780585
 N          3.9038284644       -1.1468834186        0.3694195566
 S          4.6071931197        0.3670432525        0.2223215697
 O          5.6616087375        0.1959161415       -0.7522226397
 O          5.0191071568        0.8283082148        1.5244731027
 C          3.3256740892        1.4208517924       -0.4281706255
 C          3.0197122984        1.3198761940       -1.7703758380
 C          1.9986874900        2.0994817381       -2.2858318419
 C          1.2999519718        2.9573834228       -1.4521595149
 C          1.6158647747        3.0442125289       -0.1061665517
 C          2.6373479954        2.2675782052        0.4155988654
 H          2.9157696677        2.3092485403        1.4559821621
 H          1.0668281085        3.7116833128        0.5389901792
 H          0.5021121064        3.5611197240       -1.8546570873
 H          1.7449296625        2.0304462152       -3.3314295462
 H          3.5916214524        0.6473750797       -2.3898317676
 H          3.9843253078       -1.6468276682       -0.5047567201
 H          3.1753361827       -0.1166302406        2.6705646116
 H          0.8964317473       -0.2191987104        3.6523912831
 H         -0.9226663759       -1.3459889336        2.4247859955
 C         -0.8525103028       -2.5389424197        0.0470906838
 H         -1.2558449767       -3.3448860594        0.6765963491
 C         -0.4943404886       -3.1123986838       -1.3079243238
 C          0.1165456145       -4.4769569015       -1.4116407787
 C         -1.3005422720       -4.2545313614       -1.8456935067
 H         -1.5269972081       -4.2743911092       -2.9012278604
 H         -2.0962598098       -4.6360993568       -1.2225327925
 H          0.8615663350       -4.6549111517       -2.1727074439
 H          0.2862250816       -5.0198270013       -0.4940724260
 H         -0.1773878974       -2.3519641081       -2.0127277625
 O         -0.5642884575        0.0493375559       -1.1712171132
