  62
        -98.93831246
 C          2.3568144417        1.1456224884        0.2019437731
 C          2.3760051617       -0.1367010568       -0.3935845766
 C          3.4096009599       -1.0689354175        0.0961533170
 C          4.2403169414       -0.6732170300        1.0759148837
 C          5.3836447523       -1.4425216989        1.6776677172
 C          6.7033393277       -1.1032671848        0.9639692900
 C          7.0035110424       -1.9502411929       -0.2720206814
 H          7.8879410721       -1.5241603795       -0.7511100002
 H          7.2575872727       -2.9649594781        0.0414136522
 C          5.8746179172       -2.0259799767       -1.3032720024
 H          5.4336084000       -1.0369587805       -1.4400613053
 H          6.3131397308       -2.3194437509       -2.2590494451
 C          4.7811720198       -3.0375094752       -0.9280849226
 H          4.6015839675       -3.7063377095       -1.7725079028
 H          5.1390857832       -3.6628465411       -0.1104263721
 C          3.4228125542       -2.4260926232       -0.5531031455
 H          2.8802988871       -3.1258997371        0.0920270449
 H          2.8157028881       -2.3066584328       -1.4562743481
 H          6.6721589449       -0.0462622686        0.6877521046
 H          7.5261802277       -1.2322781273        1.6698575838
 H          5.4591055090       -1.1218454117        2.7187778515
 H          5.1853967326       -2.5098977524        1.6537230545
 O          4.1714307825        0.5647636450        1.6381884540
 C          3.2387873502        1.4957747834        1.2263663315
 O          3.2915429580        2.5825787329        1.8356393925
 O          1.5818890095       -0.4959859594       -1.3038566191
 C          1.3346184419        2.1923633491       -0.2131070487
 C         -0.0311822712        1.7043851794        0.2039255783
 C         -0.3928058652        1.7883554325        1.5461735046
 C         -1.6094763928        1.2987425797        1.9803453452
 C         -2.4885750370        0.7078498527        1.0883725254
 C         -2.1292871059        0.6031268411       -0.2477233371
 C         -0.9133101936        1.1141224554       -0.6857172430
 H         -0.6434007265        1.0162641870       -1.7250203728
 N         -3.0104191734        0.0048098984       -1.1626172500
 S         -3.8045275377       -1.4065761113       -0.7279366841
 O         -3.0379050930       -2.1961031491        0.2079317231
 O         -4.1463317120       -2.0454699261       -1.9803370370
 C         -5.3001796123       -0.8228390492        0.0454384654
 C         -5.6805969232       -1.3263075130        1.2739454936
 C         -6.8546064350       -0.8690278181        1.8523379444
 C         -7.6243630830        0.0780413476        1.1947653228
 C         -7.2302371119        0.5715699561       -0.0400557574
 C         -6.0586395726        0.1174941436       -0.6241602618
 H         -5.7193870545        0.4746026104       -1.5819978882
 H         -7.8311961447        1.3083475296       -0.5482802839
 H         -8.5364394462        0.4336607015        1.6474580691
 H         -7.1622299175       -1.2523943053        2.8119972647
 H         -5.0468886260       -2.0566125236        1.7518563000
 H         -2.6338768666       -0.0673550322       -2.0969432539
 H         -3.4338481426        0.3129342115        1.4228125228
 H         -1.8778162533        1.3740784303        3.0232364762
 H          0.3027588166        2.2328904470        2.2449884062
 H          1.5688182616        3.0890316991        0.3761367681
 C          1.4483348999        2.5336405300       -1.6838207576
 C          0.7953332806        3.7790022219       -2.2013339010
 C          2.2883372936        3.7023353974       -2.0988435812
 H          2.8655639635        3.6239836489       -3.0080154530
 H          2.7783839372        4.2667064132       -1.3188596444
 H          0.3461217770        3.7575307721       -3.1825107919
 H          0.2696350477        4.3966753486       -1.4891373505
 H          1.4650034525        1.6620725574       -2.3265868798
