  62
        -98.93791378
 C         -2.2162946297       -0.8806845989       -0.0458842597
 C         -3.2324482699       -0.7707405474        0.9361737699
 C         -4.1612549096        0.3589608626        0.7912197882
 C         -3.9788372692        1.2291176912       -0.2185837829
 C         -4.8833384089        2.3821035910       -0.5494421346
 C         -6.1484445389        1.8676164603       -1.2661067243
 C         -7.4444950190        2.0662926815       -0.4797834948
 H         -7.7370553688        3.1167997315       -0.5377814963
 H         -8.2206643890        1.4802145810       -0.9764892643
 C         -7.3946052294        1.6750103034        1.0002096757
 H         -6.9144367594        2.4691393241        1.5738522948
 H         -8.4280362295        1.6204423041        1.3489741455
 C         -6.6962939598        0.3471319837        1.3203740276
 H         -7.2592548701       -0.1495548451        2.1131586081
 H         -6.7143975097       -0.3154815474        0.4548994884
 C         -5.2474774599        0.4897078541        1.8230871078
 H         -5.1359789398        1.4406806048        2.3512464965
 H         -5.0469817702       -0.3103557750        2.5416895788
 H         -6.2514893985        2.3718221890       -2.2281891549
 H         -6.0111809290        0.8058802200       -1.4815975128
 H         -5.1481111891        2.9154429922        0.3608435246
 H         -4.3252232787        3.0564442900       -1.1993557054
 O         -2.9724462790        1.1096309299       -1.1225023525
 C         -2.0677559092        0.0590064298       -1.0653488709
 O         -1.2096593390        0.0821463884       -1.9692592807
 O         -3.3578632803       -1.5849841561        1.8894091609
 C         -1.2399217199       -2.0408107289        0.0655411420
 C          0.1093222401       -1.4887754986        0.4525921917
 C          0.3613175698       -1.1865266869        1.7882310413
 C          1.5637965498       -0.6219817967        2.1687178909
 C          2.5375661301       -0.3390799981        1.2260660408
 C          2.2878909404       -0.6187521798       -0.1100974189
 C          1.0868555504       -1.2056528500       -0.4878571285
 H          0.9012022406       -1.4049618714       -1.5312534783
 N          3.2650409607       -0.3289440512       -1.0771281391
 S          4.0470503310        1.1536289687       -1.0102323508
 O          3.2180882610        2.1788603997       -0.4192668623
 O          4.5097262213        1.3978480969       -2.3593352410
 C          5.4576174306        0.8322112298        0.0306616100
 C          6.2497364005       -0.2608277407       -0.2622724384
 C          7.3561435703       -0.5174526799        0.5314692122
 C          7.6530185002        0.3200871815        1.5964201812
 C          6.8506413103        1.4157535320        1.8750355595
 C          5.7413887005        1.6772610912        1.0855565589
 H          5.0845112906        2.5127941715        1.2690236477
 H          7.0826866302        2.0664045730        2.7028628588
 H          8.5144519400        0.1176105321        2.2130652417
 H          7.9820654302       -1.3688953902        0.3180505235
 H          5.9857469006       -0.8859481317       -1.0987039577
 H          2.9681442309       -0.5328498924       -2.0208030089
 H          3.4731451201        0.1118038121        1.5138963904
 H          1.7468120496       -0.3970746953        3.2084649506
 H         -0.4068678804       -1.3883121658        2.5216795014
 H         -1.6101269302       -2.6501475777        0.9008448727
 C         -1.2192064297       -2.8919640505       -1.1865427068
 C         -0.5854830300       -4.2492282006       -1.1383210249
 C         -2.0740129799       -4.1206392105       -1.2509640255
 H         -2.5449473898       -4.3702984416       -2.1900198752
 H         -2.6751965202       -4.3568959392       -0.3853438753
 H         -0.0320140398       -4.5914178118       -1.9993235343
 H         -0.1745380103       -4.5710463894       -0.1935526044
 H         -1.1170681894       -2.3151762617       -2.0978205776
