  62
        -98.94386194
 C          1.7135232301        1.3173647204       -0.0056266802
 C          0.9594395304        1.9205523704       -1.0397141804
 C         -0.2798847698        2.6156662003       -0.6427302807
 C         -0.5969458703        2.7008749201        0.6627618892
 C         -1.7483894006        3.3782469299        1.3773386089
 C         -2.8949494304        3.9964250399        0.5841026786
 C         -3.8348551400        2.9772561398       -0.0651723719
 H         -4.4629208503        2.5436627097        0.7168227879
 H         -4.4887685498        3.5015040498       -0.7647249020
 C         -3.1553119497        1.8178278400       -0.7903439618
 H         -3.9287299895        1.1131834699       -1.1097415221
 H         -2.5079139598        1.2767487600       -0.0977279616
 C         -2.3449915193        2.1936125802       -2.0285412415
 H         -2.9938837591        2.6765112002       -2.7629339616
 H         -1.9743907990        1.2618398803       -2.4677644914
 C         -1.1371521595        3.1073148303       -1.7728215909
 H         -0.5059567392        3.0877354005       -2.6666458607
 H         -1.4507105996        4.1366289103       -1.6172383009
 H         -3.4862571507        4.5845794297        1.2907304684
 H         -2.5044072202        4.6930116300       -0.1521382312
 H         -2.1552458607        2.6383941998        2.0739630587
 H         -1.2883450909        4.1601604999        1.9911792491
 O          0.1980724395        2.1547189201        1.6301625994
 C          1.3239835597        1.4029823502        1.3289789097
 O          1.8710739494        0.8891184601        2.3218369598
 O          1.3082861908        1.8820362006       -2.2506927802
 C          2.9214974003        0.4723720806       -0.3757027599
 C          2.5763675504       -0.9717965795       -0.0993172001
 C          3.2619820002       -1.7767060995        0.8000175800
 C          2.8374837502       -3.0729909396        1.0381495397
 C          1.7210073305       -3.5838431096        0.4024746893
 C          1.0319732007       -2.7893587496       -0.5085976209
 C          1.4768348607       -1.5025725795       -0.7653679906
 H          0.9465601309       -0.8949364295       -1.4847294407
 N         -0.0987140490       -3.2853089097       -1.1813047813
 S         -1.4931620090       -2.3752789198       -1.3294752617
 O         -2.4665244988       -3.3024906498       -1.8639990121
 O         -1.2398080089       -1.1953361697       -2.1126327115
 C         -1.9498711497       -1.9410135200        0.3383203282
 C         -1.2915166100       -0.9055007100        0.9702590885
 C         -1.6075747205       -0.6125855702        2.2875819885
 C         -2.5808454806       -1.3493490804        2.9445524780
 C         -3.2396448103       -2.3821009904        2.2942390077
 C         -2.9174059698       -2.6878116002        0.9819496278
 H         -3.4027447595       -3.4813296302        0.4371216075
 H         -3.9980584204       -2.9509924005        2.8074058374
 H         -2.8241342210       -1.1145674705        3.9687937480
 H         -1.0793645207        0.1847618798        2.7881427487
 H         -0.5414348799       -0.3438038999        0.4347942389
 H         -0.3321189590       -4.2398841897       -0.9479386315
 H          1.3842679705       -4.5895182197        0.6031901290
 H          3.3769059400       -3.6894982596        1.7409228298
 H          4.1206049999       -1.3876162495        1.3212717903
 H          3.0379841407        0.5919798607       -1.4627931698
 C          4.1812922400        0.9531264506        0.3087628406
 C          5.5195912603        0.6058401008       -0.2695658789
 C          5.0094470902        2.0122329208       -0.3524012690
 H          5.4699882499        2.7670169308        0.2671507113
 H          4.6742307205        2.3806359109       -1.3111683890
 H          6.3352864201        0.3958579108        0.4053840013
 H          5.5340351707        0.0184388009       -1.1752707190
 H          4.0848314297        0.9986133305        1.3869777006
