  62
        -98.94411105
 C         -2.2521296428       -0.8778862633        0.3540751017
 C         -2.4510115610        0.0304394208       -0.7139399272
 C         -3.2972190871        1.1945568131       -0.4122728148
 C         -3.7835855783        1.3527805548        0.8322092866
 C         -4.7021855214        2.4598517706        1.2598092664
 C         -6.1736147105        2.0539937229        1.0949946398
 C         -6.5003884391        1.4576308467       -0.2741482701
 H         -5.9749647110        0.5060475523       -0.3829613693
 H         -7.5699288071        1.2369310978       -0.2850981663
 C         -6.1533153664        2.3663754893       -1.4617131746
 H         -6.0309281928        3.3941959125       -1.1182071085
 H         -6.9886580075        2.3570851656       -2.1650053738
 C         -4.9085351552        1.9415023122       -2.2430599139
 H         -4.8802253746        2.5132064772       -3.1743771311
 H         -4.9869148825        0.8846775965       -2.5100726541
 C         -3.5671535705        2.1600873624       -1.5317806924
 H         -2.7711336154        1.9966814607       -2.2642018866
 H         -3.5020285780        3.1907790898       -1.1773528484
 H         -6.4152068562        1.3110060606        1.8586767627
 H         -6.7954617013        2.9340305249        1.2688887568
 H         -4.5106386175        2.6797721610        2.3115417348
 H         -4.4912768506        3.3488934010        0.6686507720
 O         -3.5259173828        0.4852426009        1.8455190050
 C         -2.7644210520       -0.6523809344        1.6306417963
 O         -2.6078573844       -1.3663222742        2.6434482040
 O         -1.9503353533       -0.1210964849       -1.8577373445
 C         -1.4221428866       -2.1293221364        0.1345586770
 C         -0.0180420629       -1.7628049796       -0.2839705526
 C          0.6615907081       -2.3987666969       -1.3142584461
 C          1.9560537518       -2.0265238635       -1.6341862957
 C          2.5999676858       -1.0208829523       -0.9378176223
 C          1.9351490900       -0.3874902550        0.1043785085
 C          0.6407185304       -0.7657447883        0.4252657021
 H          0.1247490992       -0.2732499021        1.2415588079
 N          2.5768581150        0.6432250477        0.8140402416
 S          4.1151824972        0.3492472109        1.4206006119
 O          4.3068103125       -1.0505876605        1.7223906354
 O          4.2677973663        1.2710956889        2.5252226105
 C          5.1991340141        0.8444762730        0.0980012725
 C          6.1528576297       -0.0340687296       -0.3775013955
 C          6.9920511939        0.3782986411       -1.4010335534
 C          6.8638468964        1.6547661640       -1.9267684766
 C          5.9022860422        2.5257623752       -1.4360688824
 C          5.0610472027        2.1204442952       -0.4123050805
 H          4.3027450302        2.7662367521       -0.0016924665
 H          5.8049056961        3.5174081279       -1.8477755507
 H          7.5168476145        1.9731526052       -2.7239560588
 H          7.7401822654       -0.2970041071       -1.7838941820
 H          6.2110707018       -1.0188963222        0.0578499611
 H          1.9948742931        1.0706241563        1.5199166054
 H          3.6052358589       -0.7246321262       -1.1887084763
 H          2.4696769351       -2.5250442537       -2.4419461326
 H          0.1769420218       -3.1841548322       -1.8703055658
 H         -1.3600322502       -2.6285068342        1.1134170943
 C         -2.1227528219       -3.0535127065       -0.8399191062
 C         -1.9430255315       -4.5374414423       -0.7381254874
 C         -3.2446963337       -3.9111037247       -0.3397393270
 H         -4.1056667102       -4.0577298211       -0.9745274310
 H         -3.4842231145       -3.8492129849        0.7123157673
 H         -1.9135979563       -5.1175963396       -1.6480585478
 H         -1.3008786332       -4.9111063965        0.0452441145
 H         -2.2292531869       -2.6143373565       -1.8250438399
