  62
        -98.94045214
 C         -2.4787627811       -1.1965427207        0.0058438401
 C         -2.4574946112        0.0145212796       -0.7265922194
 C         -3.7690253412        0.6274189497       -0.9845377690
 C         -4.8826626712        0.0132834395       -0.5445839991
 C         -6.2741783312        0.5584461296       -0.6819978586
 C         -6.6583231410        1.4056842291        0.5393729118
 C         -5.6080093409        2.4483584590        0.9225154020
 H         -5.9988110908        3.0052319686        1.7768491723
 H         -4.7030200409        1.9371130288        1.2588789117
 C         -5.2450428511        3.4269104494       -0.2031180176
 H         -6.0176788212        3.4099387497       -0.9725386575
 H         -5.2175935410        4.4385629592        0.2070454028
 C         -3.8820585812        3.1720153897       -0.8497254079
 H         -3.1147399511        3.0958015993       -0.0747860481
 H         -3.6330620013        4.0360524099       -1.4716801776
 C         -3.7884124013        1.9263473800       -1.7401057785
 H         -4.5975243914        1.9351874703       -2.4733370383
 H         -2.8363039014        1.9732179902       -2.2772988686
 H         -7.6073871110        1.9024100492        0.3303144721
 H         -6.8040715509        0.7377029388        1.3913627415
 H         -6.3362729013        1.1578176900       -1.5880091884
 H         -6.9663382912       -0.2811642703       -0.7633383389
 O         -4.8628673711       -1.1635176507        0.1322556505
 C         -3.6654647211       -1.7904989209        0.4346038000
 O         -3.7871436210       -2.8503420211        1.0815877996
 H          1.5123275089       -1.3880554007       -0.0674093906
 C          1.0882132190       -0.8277765911        0.7483009597
 C         -0.2504502509       -0.9647215212        1.0797794499
 C         -0.7512414808       -0.2276473016        2.1502731702
 C          0.0607225593        0.6437272881        2.8490146605
 C          1.3901018893        0.7980609882        2.4971800003
 C          1.9062625991        0.0519565186        1.4446505099
 N          3.2678861891        0.1509076788        1.1093843998
 S          3.7573693788        0.0154280394       -0.5002659003
 O          3.0300224787        0.9451435497       -1.3344620099
 O          3.7098777688       -1.3712378204       -0.8892398409
 C          5.4574203789        0.5327001393       -0.3415611304
 C          5.7997338888        1.8394805894       -0.6333378399
 C          7.1186943689        2.2376328793       -0.4812187100
 C          8.0675214589        1.3277562192       -0.0398164305
 C          7.7093009589        0.0189903690        0.2478946591
 C          6.3926129689       -0.3856959309        0.0967343391
 H          6.0695016589       -1.3934998710        0.2985785887
 H          8.4505439990       -0.6861692111        0.5877647587
 H          9.0931440189        1.6400188191        0.0778192795
 H          7.4005109088        3.2532529194       -0.7081312096
 H          5.0301443388        2.5089473696       -0.9831888695
 H          3.7156724891        0.9432887286        1.5501743700
 H          2.0226173094        1.4870625880        3.0361989805
 H         -0.3455645005        1.2151382378        3.6703148307
 H         -1.7931251707       -0.3420040717        2.4193378303
 C         -1.1761433811       -1.8998415309        0.3398103996
 H         -1.4402433110       -2.7264303511        1.0166743893
 C         -0.5622944413       -2.4811377004       -0.9169148707
 C          0.2842129887       -3.7150406204       -0.8430209913
 C         -1.0844394814       -3.7802376901       -1.4495840711
 H         -1.1722585815       -3.9012404897       -2.5188613612
 H         -1.8711915613       -4.2629617004       -0.8878721512
 H          1.1445091486       -3.7866528702       -1.4919007115
 H          0.4287894489       -4.1625679808        0.1288238485
 H         -0.2882685314       -1.7181606501       -1.6382246304
 O         -1.4002085013        0.5599135797       -1.1404073794
