  62
        -98.94315602
 C          1.8898786749        1.1441466341        0.3371922722
 C          2.4460239430        0.1307467132        1.1607885815
 C          3.8553794826       -0.1984664390        0.9243204290
 C          4.5465192952        0.4713556352       -0.0154812825
 C          5.9984590611        0.2753754854       -0.3580309330
 C          6.2592885290       -0.8750113198       -1.3397527247
 C          6.0904241461       -2.2782256717       -0.7559868197
 H          6.5127563650       -2.9793188847       -1.4785619264
 H          6.6761107588       -2.3628314062        0.1599034506
 C          4.6343316284       -2.6764859914       -0.4763887059
 H          3.9616057548       -2.0078914021       -1.0188705232
 H          4.4531508460       -3.6854779681       -0.8538175660
 C          4.2474782140       -2.6716068656        1.0027687646
 H          4.8196595083       -3.4355773155        1.5341043723
 H          3.1879856113       -2.9304808763        1.0805752018
 C          4.4590553466       -1.3250004288        1.7071486645
 H          3.9568764481       -1.3631038481        2.6770847248
 H          5.5222297630       -1.1488410632        1.8702280615
 H          5.5973827903       -0.7568031241       -2.2007079086
 H          7.2876081562       -0.7738367633       -1.6941866860
 H          6.3364172009        1.2054494052       -0.8199678586
 H          6.5711525930        0.1125699795        0.5554416121
 O          3.9863141166        1.4517807238       -0.7684481049
 C          2.6483716143        1.7998016227       -0.6334384866
 O          2.2899286153        2.6974049005       -1.4187640339
 O          1.7960682878       -0.4633742514        2.0629922202
 C          0.4226783301        1.4813114069        0.5518726095
 C         -0.4175369585        0.8440569203       -0.5291524413
 C         -0.5081998591        1.3831643297       -1.8088069834
 C         -1.2620349612        0.7528782216       -2.7814845442
 C         -1.9548265255       -0.4107522390       -2.4962742142
 C         -1.8696208431       -0.9592025024       -1.2227638092
 C         -1.1009480230       -0.3324925025       -0.2514309019
 H         -1.0283687430       -0.7820268576        0.7281176318
 N         -2.5649842935       -2.1399827592       -0.8994602760
 S         -3.5646988598       -2.1181591110        0.4443754610
 O         -2.7803254756       -2.1134233676        1.6516330171
 O         -4.4520801345       -3.2454353521        0.2604473341
 C         -4.4703125375       -0.5907629070        0.2802434446
 C         -4.0298866660        0.5382374885        0.9403265962
 C         -4.6939184651        1.7368411371        0.7321317602
 C         -5.7796444790        1.7849687634       -0.1283133806
 C         -6.2140557962        0.6404357338       -0.7796314682
 C         -5.5512051153       -0.5592493910       -0.5792866149
 H         -5.8608460527       -1.4737035769       -1.0589623063
 H         -7.0623857208        0.6806654934       -1.4436816534
 H         -6.2908042039        2.7208840251       -0.2892963201
 H         -4.3582885271        2.6278978307        1.2383803005
 H         -3.1846765601        0.4564988622        1.6045086519
 H         -3.0506132869       -2.5528900532       -1.6834597940
 H         -2.5482533989       -0.8978384557       -3.2552505529
 H         -1.3169346146        1.1770496475       -3.7725210389
 H          0.0437432139        2.2788763565       -2.0438177542
 H          0.1599441128        0.9976516748        1.5029642469
 C          0.1661722290        2.9686282192        0.6836163978
 C         -1.0828706037        3.4307739212        1.3695421256
 C          0.2472141095        3.6042399803        2.0377627523
 H          0.6634474583        4.5973793946        2.1156585596
 H          0.4850734365        2.9657926650        2.8765509738
 H         -1.5857258169        4.3063306804        0.9893791401
 H         -1.7443668112        2.6715857637        1.7584841769
 H          0.5290542780        3.5490858694       -0.1538627965
