  62
        -98.94582935
 C          2.4759188367        1.1107011255       -0.0550349451
 C          3.0565014963        0.1992621847        0.8587992321
 C          3.5140421007       -1.0738567192        0.2938392350
 C          3.3648902881       -1.3110655221       -1.0222859698
 C          3.7854833183       -2.5596115718       -1.7487011715
 C          2.7486877469       -3.6897124696       -1.6841143131
 C          2.6288804449       -4.3845247294       -0.3271447935
 H          2.0337427479       -5.2867741047       -0.4808194854
 H          3.6178024505       -4.6978990122        0.0093519942
 C          1.9582235715       -3.5350307841        0.7619377867
 H          1.4112647686       -2.7099604842        0.2962693167
 H          1.2165487319       -4.1390811272        1.2908400830
 C          2.9213094427       -2.9754259126        1.8100461157
 H          3.3656085685       -3.7993610609        2.3728108579
 H          2.3465038280       -2.3626644285        2.5097978813
 C          4.0505917481       -2.1089896619        1.2360494574
 H          4.5361223751       -1.5871285054        2.0643242470
 H          4.7876422200       -2.7358005257        0.7353931426
 H          1.7737711893       -3.2877342877       -1.9720774763
 H          3.0334725766       -4.4378462263       -2.4275150397
 H          3.9236565609       -2.2792694392       -2.7950006662
 H          4.7378246083       -2.9134073220       -1.3531308337
 O          2.8073392096       -0.4074972542       -1.8697642773
 C          2.3092635106        0.8021103468       -1.4057117115
 O          1.7679261034        1.5004794922       -2.2826646178
 H          0.3788276647        0.5592070358        1.5666873835
 C         -0.2233250148        1.2629215677        1.0039038803
 C          0.4019948828        2.3349102701        0.3766207294
 C         -0.3807872814        3.2275629580       -0.3415959934
 C         -1.7489253419        3.0350762241       -0.4404173225
 C         -2.3625715842        1.9564861870        0.1699973259
 C         -1.5882487747        1.0631443432        0.8992957702
 N         -2.2052170999       -0.0563813901        1.5087272954
 S         -2.6948891482       -1.2400267653        0.4107163376
 O         -2.7981470031       -2.4604344036        1.1814975687
 O         -1.8228366342       -1.2825387833       -0.7425058902
 C         -4.3240033019       -0.7039160754       -0.0616789876
 C         -4.5728766524       -0.3163273909       -1.3632861273
 C         -5.8483506423        0.1090908061       -1.7018166822
 C         -6.8445876914        0.1399521232       -0.7378082308
 C         -6.5776354148       -0.2536011935        0.5653701143
 C         -5.3055248044       -0.6810382867        0.9102364838
 H         -5.0536626133       -1.0000687050        1.9077909662
 H         -7.3549749621       -0.2276396524        1.3118363925
 H         -7.8352114047        0.4730949759       -1.0042710114
 H         -6.0571977155        0.4160845659       -2.7140425261
 H         -3.7639677279       -0.3502096364       -2.0757632396
 H         -1.6092475597       -0.4929885533        2.1997283535
 H         -3.4261085901        1.8013105693        0.0891558436
 H         -2.3447429036        3.7333374303       -1.0079950197
 H          0.0819416768        4.0646638896       -0.8375543061
 C          1.9054984613        2.4142437194        0.4799960272
 H          2.1738739977        2.4326181458        1.5465802416
 C          2.5138667146        3.6202112996       -0.1991382584
 C          2.4892063160        4.9516346411        0.4887418268
 C          3.7794967779        4.2024198617        0.3524928549
 H          4.5212600753        4.5701110338       -0.3403448787
 H          4.1984454022        3.7379767548        1.2333094763
 H          2.3467091631        5.8384449598       -0.1096481803
 H          2.0319771044        4.9996998166        1.4653771925
 H          2.4037275607        3.5959357129       -1.2767432856
 O          3.1772523996        0.4351370637        2.0924370122
