  62
        -98.93802850
 C          1.7156521403        1.0346395204       -0.0060265694
 C          2.9328057402        0.9924014201        0.7238398107
 C          4.1116141102        0.4494194801        0.0311183707
 C          3.9900348802        0.0329804403       -1.2405208394
 C          5.0539315002       -0.5120021697       -2.1600957294
 C          6.0596323001       -1.5076844599       -1.5673338895
 C          5.4925055599       -2.4315252100       -0.4794519497
 H          4.4040662599       -2.3541520599       -0.4512271998
 H          5.7381099498       -3.4656919100       -0.7282815399
 C          6.0604605798       -2.1357460603        0.9107751704
 H          5.9193351797       -3.0165227603        1.5419210102
 H          7.1358848499       -1.9673243504        0.8210407904
 C          5.4274551199       -0.9511006103        1.6399130005
 H          5.9946457999       -0.7800590205        2.5580283906
 H          4.4056581899       -1.2025078402        1.9376820804
 C          5.3709322901        0.3632380998        0.8442526507
 H          6.2580063502        0.4898594098        0.2284096708
 H          5.3236856302        1.1873508397        1.5612533809
 H          6.9138957201       -0.9664829300       -1.1632070394
 H          6.4338494200       -2.1093840098       -2.3974129196
 H          4.5065163902       -0.9878191895       -2.9774863195
 H          5.5988289303        0.3344495304       -2.5883436293
 O          2.8043022403        0.0903980706       -1.9063779495
 C          1.6452514203        0.5753183906       -1.3198641794
 O          0.6553565103        0.5294588608       -2.0791395195
 O          3.0332953802        1.4103989999        1.9077437208
 C          0.5133777303        1.6155631204        0.7181983107
 C         -0.4052881799        0.5456487504        1.2566601404
 C         -0.7336664800        0.4940596402        2.6060531504
 C         -1.6117207501       -0.4638854098        3.0842077502
 C         -2.1772348201       -1.3920039996        2.2279572800
 C         -1.8471126601       -1.3527286694        0.8800946301
 C         -0.9758551999       -0.3863505994        0.4013613203
 H         -0.7332574399       -0.3580572293       -0.6507019097
 N         -2.4332510201       -2.2858935292       -0.0083350401
 S         -4.0744180501       -2.0437425289       -0.2595292402
 O         -4.7819920402       -2.3824023091        0.9489058097
 O         -4.4152074601       -2.8095202987       -1.4367234103
 C         -4.2122910999       -0.2962701989       -0.5848167799
 C         -4.4390810598        0.5720227710        0.4639230802
 C         -4.4522769497        1.9341191710        0.2118437304
 C         -4.2360443595        2.4004615012       -1.0755930495
 C         -4.0056073896        1.5154637213       -2.1173805996
 C         -3.9870308797        0.1526081513       -1.8705168498
 H         -3.8125369598       -0.5682037486       -2.6536234999
 H         -3.8320841295        1.8812329415       -3.1168299695
 H         -4.2487988794        3.4613162612       -1.2718607493
 H         -4.6258416896        2.6257820309        1.0202784105
 H         -4.6051257099        0.1683122508        1.4491066401
 H         -1.9691470501       -2.2984693791       -0.9067970501
 H         -2.8752209802       -2.1357665595        2.5767143299
 H         -1.8578566801       -0.4893029499        4.1347570102
 H         -0.2889098499        1.2070006001        3.2845543705
 H          0.9354920103        2.1570393802        1.5753475808
 C         -0.2809891196        2.5959306506       -0.1243800592
 C         -1.0644858495        3.6726556106        0.5611953409
 C          0.1726130806        4.0209142806       -0.2096938490
 H          0.0699537407        4.5373091007       -1.1520850389
 H          1.0596919906        4.2958734404        0.3424431011
 H         -2.0213185494        3.9509206608        0.1495556709
 H         -1.0171256795        3.7164457404        1.6384812209
 H         -0.7037494696        2.1523667608       -1.0166225893
