  62
        -98.93732589
 C         -2.4951613879       -1.1761740836       -0.1124115891
 C         -3.2245681378       -0.3830971549        0.8027604487
 C         -3.9794088461        0.7454631328        0.2343011620
 C         -3.9394943320        0.9634281057       -1.0916487201
 C         -4.6546344279        2.0277574276       -1.8855024554
 C         -4.6526238371        3.4542712541       -1.3169128813
 C         -3.4026538302        3.8318081200       -0.5084037036
 H         -2.6219174008        3.0824986244       -0.6521437957
 H         -3.0133637029        4.7816134857       -0.8797833714
 C         -3.6859641322        3.9957082039        0.9871079855
 H         -2.8927025616        4.6025052766        1.4309596638
 H         -4.6222787829        4.5448846240        1.1071069073
 C         -3.7637550936        2.6972987021        1.7898713490
 H         -4.0915413013        2.9468165414        2.8020058925
 H         -2.7667582121        2.2560086286        1.8793850831
 C         -4.7004440677        1.6193224127        1.2200122625
 H         -4.9985205400        0.9652142798        2.0439754215
 H         -5.5938289062        2.0628694793        0.7874526523
 H         -5.5334114133        3.5992201786       -0.6929216262
 H         -4.7541807134        4.1324762890       -2.1656488038
 H         -5.6884772748        1.7038096988       -2.0348257231
 H         -4.1706178312        2.0230429937       -2.8648959804
 O         -3.2191865390        0.1746143018       -1.9377948747
 C         -2.4701408642       -0.8975957859       -1.4782554287
 O         -1.8438096639       -1.5044502169       -2.3661614076
 O         -3.2443002839       -0.6060147255        2.0443064929
 C         -1.6696737675       -2.3367002816        0.4107144838
 C         -0.2057644660       -2.1000821137        0.1264351326
 C          0.6449167427       -3.0761273621       -0.3747322319
 C          1.9797993880       -2.7901887010       -0.6060196572
 C          2.4950979145       -1.5342782520       -0.3450418126
 C          1.6570595481       -0.5538718315        0.1708264193
 C          0.3232234916       -0.8462785244        0.4087599824
 H         -0.3275062911       -0.0809872325        0.8152935449
 N          2.1620707743        0.7322006151        0.4265788784
 S          3.5935975947        0.8808568849        1.2898533284
 O          3.7816879138       -0.2259730884        2.1986850967
 O          3.5384067003        2.1985637256        1.8844833430
 C          4.8535278124        0.8632705220        0.0326537204
 C          5.9015300377       -0.0320001206        0.1186017765
 C          6.8760251499       -0.0189562693       -0.8673529072
 C          6.7858919979        0.8846157383       -1.9149872745
 C          5.7278629242        1.7788013382       -1.9853014513
 C          4.7511497286        1.7717802764       -1.0025198241
 H          3.9149029532        2.4508065344       -1.0193476874
 H          5.6605143652        2.4798277842       -2.8016459805
 H          7.5443810213        0.8924157946       -2.6817531308
 H          7.6992987342       -0.7130423985       -0.8146657026
 H          5.9268766231       -0.7200902719        0.9485310213
 H          1.4692361698        1.3815352040        0.7692031369
 H          3.5317583931       -1.3069315296       -0.5321732608
 H          2.6277245027       -3.5571382720       -1.0019656999
 H          0.2623436534       -4.0601704771       -0.5896774557
 H         -1.8077894541       -2.3249038537        1.5028480631
 C         -2.1911357210       -3.6507754936       -0.1307203526
 C         -2.0431230268       -4.9099762682        0.6684159544
 C         -3.3906856441       -4.2727749693        0.5170084779
 H         -4.1243102472       -4.7548930212       -0.1113848822
 H         -3.8150266334       -3.7613251047        1.3688760872
 H         -1.8538751052       -5.8344256025        0.1440478440
 H         -1.5544030132       -4.8386501983        1.6284770898
 H         -2.1162315494       -3.7142548234       -1.2103268359
