  62
        -98.93961629
 C          2.6251143695        0.6832348534        0.6388253985
 C          2.9832268879        0.1087377010       -0.6049664566
 C          3.4295856367       -1.2913056078       -0.5563673187
 C          3.4772158391       -1.9290948446        0.6273976115
 C          3.8508836554       -3.3710386916        0.8103200217
 C          2.6117378190       -4.2756294430        0.7514405296
 C          1.7044925455       -4.0049447370       -0.4491572184
 H          0.8808606546       -4.7205414882       -0.4018594217
 H          1.2695371550       -3.0072786567       -0.3521136967
 C          2.4030313732       -4.1196647135       -1.8113006670
 H          1.7593965648       -4.6853378726       -2.4881034831
 H          3.3329077967       -4.6794801593       -1.7048463703
 C          2.6938950080       -2.7800652555       -2.4907893293
 H          1.7834905506       -2.1753214115       -2.5176493135
 H          2.9836402128       -2.9797696021       -3.5258727283
 C          3.8099788080       -1.9395681837       -1.8575577591
 H          4.7083105851       -2.5485803315       -1.7384364513
 H          4.0378241014       -1.1195397165       -2.5447815498
 H          2.9441104397       -5.3149951644        0.7311022057
 H          2.0287285201       -4.1229238145        1.6626562162
 H          4.5607124284       -3.6576523172        0.0370288665
 H          4.3257258823       -3.4827140080        1.7865089865
 O          3.1313373418       -1.3405017735        1.8016039277
 C          2.6824080781       -0.0303243136        1.8350422213
 O          2.3626610540        0.3758011172        2.9717238949
 O          2.9313416035        0.7280972754       -1.6987607328
 C          2.1245437908        2.1154069248        0.6927258237
 C          0.8742334207        2.2510155621       -0.1441258321
 C          0.6822651782        3.2594815312       -1.0780044948
 C         -0.4920282098        3.3210029845       -1.8092750800
 C         -1.4952585441        2.3880948364       -1.6266524798
 C         -1.3207688862        1.3829719510       -0.6831009718
 C         -0.1467808782        1.3284491074        0.0527631035
 H         -0.0098691578        0.5477480933        0.7922598689
 N         -2.3274891140        0.4133079695       -0.4930313608
 S         -3.9089969415        0.9841114228       -0.3083147809
 O         -4.4163510672        1.3511975700       -1.6061454444
 O         -3.9500792593        2.0193656828        0.7010332133
 C         -4.7378779038       -0.4833596163        0.2679391491
 C         -5.0522902327       -1.4672068853       -0.6504080446
 C         -5.6816128850       -2.6193810183       -0.2070294289
 C         -5.9846910649       -2.7672952459        1.1385897421
 C         -5.6640612724       -1.7704492705        2.0476428611
 C         -5.0322478645       -0.6162638697        1.6113239316
 H         -4.7704567254        0.1874689487        2.2810020891
 H         -5.9032173771       -1.8867242657        3.0925192896
 H         -6.4766392305       -3.6640349355        1.4809789318
 H         -5.9345841673       -3.3962788261       -0.9103946440
 H         -4.8068686847       -1.3045286722       -1.6868251420
 H         -2.0983915058       -0.2118199798        0.2686810236
 H         -2.4121948511        2.4294768068       -2.1914901761
 H         -0.6267364594        4.1071333309       -2.5369932550
 H          1.4524660636        3.9954799855       -1.2393089448
 H          1.8504312327        2.3034655516        1.7415340531
 C          3.2283381589        3.0743284768        0.2996588003
 C          3.2450475696        4.4693312829        0.8460646384
 C          4.2459493876        3.4636021583        1.3278497597
 H          5.2754081909        3.5697553076        1.0204058629
 H          4.1271248092        3.0562809518        2.3216135650
 H          3.5905785872        5.2692258910        0.2087078354
 H          2.4484344979        4.7531400823        1.5173154993
 H          3.5771756877        2.9148128586       -0.7139291197
