  62
        -98.94520148
 C         -2.2512137916       -0.7523285514       -0.0333653274
 C         -3.2299642761       -0.6405193267        0.9871905380
 C         -4.0806496707        0.5525375009        0.9370762829
 C         -3.8708779840        1.4804245545       -0.0141733344
 C         -4.6343065713        2.7662174876       -0.1807632423
 C         -5.9481503373        2.6153145461       -0.9600973358
 C         -7.0768319242        1.9136193167       -0.2035339445
 H         -7.2137717483        2.3918689653        0.7667719166
 H         -7.9923953287        2.0716321054       -0.7769119297
 C         -6.8688726762        0.4048143946       -0.0119336224
 H         -7.7919954022       -0.1241691745       -0.2591186445
 H         -6.1023852511        0.0520384660       -0.7057905486
 C         -6.4774356888       -0.0061054480        1.4074769424
 H         -6.3206186208       -1.0875792636        1.4199277511
 H         -7.2949221582        0.2238092621        2.0942400611
 C         -5.1993154526        0.6638675829        1.9286688172
 H         -4.8876253669        0.1476361437        2.8398357045
 H         -5.3926226263        1.7093528648        2.1676580875
 H         -5.7429542394        2.0788114625       -1.8894088916
 H         -6.2862374612        3.6198923293       -1.2245869629
 H         -4.8379432092        3.2009103394        0.7982928653
 H         -3.9811201788        3.4453145159       -0.7332422224
 O         -2.8953266380        1.3569971340       -0.9523128284
 C         -2.0743009943        0.2386113255       -0.9989478556
 O         -1.2527339274        0.2588849422       -1.9368437527
 O         -3.3842768783       -1.4990164931        1.8954179610
 C         -1.3516384691       -1.9781597298       -0.0206676827
 C          0.0335840818       -1.5381557317        0.3826706768
 C          0.3411922419       -1.4067007627        1.7341442505
 C          1.5777772421       -0.9360614751        2.1334854773
 C          2.5297427565       -0.5757085129        1.1951767205
 C          2.2253346041       -0.6854471888       -0.1544025878
 C          0.9918081441       -1.1828704268       -0.5537084879
 H          0.7640557070       -1.2492668615       -1.6057319608
 N          3.1784219756       -0.3062609286       -1.1160948425
 S          3.9503346379        1.1716355489       -0.9188608259
 O          3.1329382812        2.1163634035       -0.1927562570
 O          4.3632869728        1.5649108214       -2.2487144138
 C          5.3998272648        0.7586664084        0.0319717058
 C          5.6957643824        1.4653710095        1.1810328020
 C          6.8349491171        1.1332300412        1.8979776650
 C          7.6542704488        0.1063914402        1.4550023639
 C          7.3445905261       -0.5920178340        0.2973743226
 C          6.2082654207       -0.2640897877       -0.4244942171
 H          5.9333304739       -0.7800222331       -1.3290956266
 H          7.9838437572       -1.3901816658       -0.0439785779
 H          8.5391160374       -0.1510082452        2.0154045175
 H          7.0770645886        1.6758338477        2.7976556591
 H          5.0256369351        2.2516654822        1.4907530435
 H          2.8444416976       -0.4029623237       -2.0647059763
 H          3.4911747279       -0.1947059720        1.4985600439
 H          1.8035583960       -0.8438479351        3.1849954499
 H         -0.4106423053       -1.6637063578        2.4671479132
 H         -1.7504043062       -2.6193050157        0.7768599145
 C         -1.3974354727       -2.7421843205       -1.3271040725
 C         -0.8568649844       -4.1391405131       -1.3756016706
 C         -2.3340570089       -3.9036700078       -1.4624931777
 H         -2.8276318948       -4.0582845464       -2.4103470484
 H         -2.9436760686       -4.1562027828       -0.6073664576
 H         -0.3337891918       -4.4593706898       -2.2635983501
 H         -0.4620623380       -4.5502646107       -0.4589917928
 H         -1.2629601439       -2.1148457901       -2.1997178852
