  62
        -98.93277968
 C          1.9439246599        0.9650253204        0.1602178088
 C          2.3317293899       -0.0601184695        1.0560674589
 C          2.5221950996       -1.4045540896        0.4893338590
 C          2.2842407993       -1.6037232598       -0.8180328109
 C          2.3431150189       -2.8898169399       -1.6047560807
 C          3.4906493188       -3.8612968600       -1.3029107108
 C          4.8237467490       -3.1913320802       -0.9391488212
 H          5.6132914988       -3.6067070904       -1.5678372413
 H          4.7703971891       -2.1210404802       -1.1455328313
 C          5.2226278193       -3.4089825500        0.5221374188
 H          6.2977859493       -3.2425512102        0.6217382685
 H          5.0258823992       -4.4497097199        0.7880687290
 C          4.5285436696       -2.4962155398        1.5322250788
 H          4.8145769798       -2.8233311097        2.5346992288
 H          4.8890850598       -1.4705591898        1.4153830386
 C          2.9936539996       -2.4612646795        1.4470886191
 H          2.5879090794       -3.4388827495        1.1972451493
 H          2.6067892599       -2.1681865193        2.4273815291
 H          3.6225008986       -4.4772125202       -2.1941531408
 H          3.1971555689       -4.5333597798       -0.4979121607
 H          1.3865510489       -3.4038774097       -1.4685390205
 H          2.3919645488       -2.5789135800       -2.6514390508
 O          1.8934031693       -0.5938445298       -1.6439484210
 C          1.6828760196        0.6961576003       -1.1836640811
 O          1.2851686095        1.4839715702       -2.0626310611
 H         -0.5473879600        0.8647651609        0.7842857293
 C         -0.7579120599        1.8528573209        0.3990037692
 C          0.2732967902        2.7807989007        0.3019985389
 C         -0.0226303497        4.0499914907       -0.1740409012
 C         -1.3167683097        4.3691184408       -0.5523745510
 C         -2.3303424199        3.4330810010       -0.4860322207
 C         -2.0403914800        2.1528467310       -0.0210216506
 N         -3.0338615801        1.1593329812       -0.0174023602
 S         -2.7482838902       -0.3922363088        0.5421157099
 O         -2.5450958200       -0.3994233286        1.9766768899
 O         -1.7129189605       -1.0001815991       -0.2562758002
 C         -4.3209748904       -1.1354240086        0.1524897904
 C         -4.5943820808       -1.4191227187       -1.1724774995
 C         -5.8196832209       -1.9769263686       -1.4997893192
 C         -6.7468692607       -2.2404283683       -0.5019762590
 C         -6.4578705004       -1.9523617282        0.8231061409
 C         -5.2338212703       -1.3932819183        1.1569014406
 H         -4.9612060600       -1.1582432782        2.1731285105
 H         -7.1792075303       -2.1610020279        1.5966013311
 H         -7.6995488309       -2.6754855482       -0.7594922187
 H         -6.0462138712       -2.2041460687       -2.5290096291
 H         -3.8383832409       -1.2036636390       -1.9101257597
 H         -3.9671525500        1.4915669714        0.1738630399
 H         -3.3322460999        3.6774979711       -0.8023138905
 H         -1.5346001197        5.3614969708       -0.9171715411
 H          0.7586044404        4.7865544106       -0.2650600915
 C          1.6474258202        2.3360704706        0.7411824687
 H          1.6057815904        2.1600660607        1.8308069387
 C          2.7314168103        3.3794487904        0.5146303783
 C          4.1299161102        2.9800550401        0.1524825981
 C          3.2701697801        3.6875400801       -0.8492248619
 H          3.5039822602        4.7149505200       -1.0873030821
 H          2.8725056998        3.1220735200       -1.6768935617
 H          4.3255735300        1.9278292200        0.0026720382
 H          4.9502330404        3.5177057900        0.6041543578
 H          2.6396884206        4.2161231405        1.2005674582
 O          2.4929934102        0.1367115607        2.2924216488
