  62
        -98.94320595
 C         -1.2677805557       -1.0580903942       -0.0260041901
 C         -1.7810460164       -0.0063591999        0.7709684910
 C         -2.7030912639        0.9191698092        0.0992847570
 C         -2.9924178418        0.7304174023       -1.2011962540
 C         -3.9553932370        1.5656896772       -1.9934250142
 C         -5.3747779406        0.9839940433       -1.9343798395
 C         -5.8488320297        0.6537407517       -0.5190056954
 H         -6.8720131433        0.2800604529       -0.5982851091
 H         -5.2396489873       -0.1607071073       -0.1204051788
 C         -5.8110917189        1.8388315989        0.4560857045
 H         -5.7560570785        2.7750184895       -0.1007820653
 H         -6.7439104806        1.8545616534        1.0236817456
 C         -4.6705753384        1.7858001937        1.4741731684
 H         -4.6680154607        0.8115118838        1.9691000250
 H         -4.8639844837        2.5415962253        2.2399936713
 C         -3.2657457743        2.0476369958        0.9168508766
 H         -3.2652188684        2.9772815556        0.3440192845
 H         -2.5884178022        2.1649817877        1.7677025771
 H         -6.0600700289        1.6996216556       -2.3924882168
 H         -5.3974258933        0.0659335525       -2.5262486712
 H         -3.9525901696        2.5823658776       -1.6047620253
 H         -3.6227488679        1.5831989650       -3.0328416092
 O         -2.4665976037       -0.2810483331       -1.9394647555
 C         -1.5920663207       -1.2015444675       -1.3749837164
 O         -1.1788808943       -2.0686537537       -2.1676197060
 H          0.8100653554        0.0333692659       -0.7288469810
 C          1.4925561374       -0.8039159150       -0.6474833676
 C          1.0719752906       -1.9667183047       -0.0179735592
 C          1.9752670552       -3.0203366731        0.0787296368
 C          3.2547294668       -2.9075811094       -0.4369314963
 C          3.6666864992       -1.7441241012       -1.0631717756
 C          2.7699369163       -0.6931255651       -1.1752495246
 N          3.1959016017        0.5187430649       -1.7800975362
 S          4.0436631081        1.5020187335       -0.7156007639
 O          4.1979120033        2.7759480300       -1.3807390831
 O          5.2558929390        0.8214594894       -0.3403595782
 C          2.9591362454        1.6594010672        0.6906011433
 C          3.0123846910        0.7051699095        1.6867865967
 C          2.0832406231        0.7581645887        2.7130455363
 C          1.1175104019        1.7523997884        2.7232214026
 C          1.0792841377        2.7041274604        1.7160087363
 C          2.0027081767        2.6550680335        0.6844574323
 H          2.0033335433        3.3741296855       -0.1199191067
 H          0.3233991772        3.4733165537        1.7250040942
 H          0.3803899811        1.7746828428        3.5095008297
 H          2.1044107024        0.0159123296        3.4946166375
 H          3.7746032275       -0.0559273831        1.6405534766
 H          2.4261434250        1.0532696209       -2.1597242762
 H          4.6642660523       -1.6284104608       -1.4537728178
 H          3.9415621220       -3.7352795837       -0.3481891432
 H          1.6740353862       -3.9335746006        0.5659477190
 C         -0.3006529114       -2.0355235594        0.6079090420
 H         -0.2007790191       -1.7025682127        1.6530754444
 C         -0.8733828651       -3.4401936585        0.5994757069
 C         -0.6556348924       -4.3635734437        1.7599096962
 C         -2.0072566334       -3.7617127391        1.5254681980
 H         -2.8042186342       -4.3951926301        1.1660441842
 H         -2.3394839602       -2.9777333899        2.1905014103
 H         -0.5244520642       -5.4168225911        1.5619730830
 H         -0.0811812434       -3.9945192836        2.5961816233
 H         -0.9063430185       -3.8678971254       -0.3961777997
 O         -1.4780961607        0.1521177773        1.9823487524
