  62
        -98.94351508
 C         -1.6091523783       -1.4199522888        0.5074744054
 C         -1.6431915871       -0.1011272663        1.0349612633
 C         -2.8937584345        0.6415435581        0.8517391007
 C         -3.9386589071        0.0445502838        0.2510141238
 C         -5.2978006611        0.6504175297        0.0275105492
 C         -5.3981396666        1.5109311565       -1.2393395596
 C         -4.6728578412        2.8552414323       -1.1697067846
 H         -5.0008122225        3.4407513707       -2.0309466815
 H         -4.9880910691        3.3904153595       -0.2734954605
 C         -3.1416293863        2.7481735513       -1.1981443766
 H         -2.7393214290        3.4771507978       -1.9049395114
 H         -2.8524869971        1.7591452744       -1.5612694165
 C         -2.4603844535        2.9991566636        0.1473539225
 H         -1.3862272237        2.8459192583        0.0177810890
 H         -2.6251601071        4.0349175352        0.4520072677
 C         -2.9311584899        2.0770327567        1.2795049681
 H         -2.2455400375        2.1901376139        2.1224831702
 H         -3.9344454761        2.3541477111        1.6025029560
 H         -6.4585222114        1.7017685690       -1.4205418120
 H         -5.0156022112        0.9336849147       -2.0843416095
 H         -5.9978921073       -0.1826254062       -0.0663001073
 H         -5.5803484778        1.2452865371        0.8965534333
 O         -3.8764212714       -1.2273982239       -0.2194601694
 C         -2.7049352252       -1.9725437336       -0.1552103998
 O         -2.7992078484       -3.0830271882       -0.7147086985
 H          2.1220093445       -0.9552950025        0.6052293132
 C          1.7994534154       -1.2502552893       -0.3810045435
 C          0.5845427289       -1.8987226912       -0.5439498017
 C          0.1902372208       -2.2809300667       -1.8220055980
 C          0.9997608346       -2.0106591986       -2.9096986366
 C          2.2084550089       -1.3564099583       -2.7463861472
 C          2.6140009307       -0.9764593065       -1.4715536667
 N          3.8433897534       -0.3417790119       -1.2827861955
 S          4.2533539192        0.5178216405        0.0797334061
 O          5.4692812626        1.2036600083       -0.3033386252
 O          4.3621734692       -0.3662326881        1.2138624786
 C          2.9681234074        1.7230406646        0.3514963172
 C          2.6336402025        2.5735563979       -0.6838870665
 C          1.6839124825        3.5563400186       -0.4612428711
 C          1.0918683723        3.6753978283        0.7874104305
 C          1.4339348436        2.8105211106        1.8139058510
 C          2.3814432413        1.8241554314        1.5954090932
 H          2.6712073751        1.1311825626        2.3691076717
 H          0.9627388346        2.8924185678        2.7796153909
 H          0.3596337297        4.4480538344        0.9625189744
 H          1.4079409197        4.2276329540       -1.2588887973
 H          3.1219291288        2.4656569653       -1.6387983560
 H          4.3320018699       -0.0471823751       -2.1131774419
 H          2.8374714316       -1.1456918447       -3.5974990056
 H          0.6850366805       -2.3094365514       -3.8983224706
 H         -0.7575506206       -2.7813126206       -1.9518181797
 C         -0.2913654026       -2.1599724470        0.6579807802
 H          0.2013542859       -1.7012788618        1.5266974027
 C         -0.4216439264       -3.6467313128        0.9172201078
 C          0.7469024831       -4.3761138613        1.5071426733
 C         -0.4850762371       -4.1440419743        2.3286244095
 H         -1.1259368310       -4.9844555725        2.5490802241
 H         -0.4378988368       -3.4118266567        3.1216997379
 H          1.6305125303       -3.8002679043        1.7408410172
 H          0.9552285479       -5.3778203774        1.1638835129
 H         -1.0202859297       -4.1661963960        0.1810861790
 O         -0.6712896231        0.4255086289        1.6376203931
