  62
        -98.93779367
 C         -1.2627547866       -1.1748492426       -0.2483372533
 C         -2.4404043592       -1.2296362831        0.5377835338
 C         -3.5352372665       -0.3075705582        0.1890650652
 C         -3.3533270382        0.5598004903       -0.8224009561
 C         -4.3062325823        1.5934594692       -1.3682866838
 C         -5.0871388653        2.4254945627       -0.3395954776
 C         -6.5770020084        2.0824421631       -0.2818115265
 H         -7.1191203145        2.9479931562        0.1055123364
 H         -6.9316624987        1.9045952672       -1.2991812427
 C         -6.9346383017        0.8834206067        0.5946103358
 H         -6.8097307143        1.1542038963        1.6452639872
 H         -7.9936739446        0.6648243644        0.4387862462
 C         -6.1263244124       -0.3870520123        0.3244867331
 H         -5.9834383180       -0.5275157776       -0.7463921275
 H         -6.7107613774       -1.2371096274        0.6828680429
 C         -4.7689078925       -0.4171416410        1.0428517258
 H         -4.7353896550        0.3595146285        1.8125758338
 H         -4.6531914676       -1.3682092011        1.5721790647
 H         -4.9940049606        3.4752512708       -0.6233592742
 H         -4.6330413746        2.3186245139        0.6445342798
 H         -5.0026294294        1.0971558422       -2.0492377933
 H         -3.6860726395        2.2511158963       -1.9821275701
 O         -2.2017114448        0.5873609866       -1.5487237338
 C         -1.1341444936       -0.2594257819       -1.2928830146
 O         -0.1724548527       -0.0868818457       -2.0662925614
 O         -2.5778524368       -2.0378936461        1.4968946689
 C         -0.1577905107       -2.1406587731        0.1351143147
 C          0.7970638269       -1.5433360881        1.1439924938
 C          1.3048234369       -2.3236528647        2.1771366439
 C          2.1964016015       -1.7902289447        3.0894003833
 C          2.6072053210       -0.4738356321        2.9830974078
 C          2.1026408676        0.3172007387        1.9569358779
 C          1.2034360044       -0.2213576183        1.0464063509
 H          0.8064711432        0.4096493740        0.2676162131
 N          2.4838878842        1.6609364120        1.8422462531
 S          2.6754135328        2.3694005878        0.3384531817
 O          3.4976069730        3.5316447905        0.6077003489
 O          1.3912757225        2.6359831602       -0.2568813637
 C          3.6181432266        1.1842592348       -0.6028460320
 C          4.9395521888        1.0057222841       -0.2376853510
 C          5.7019756701        0.0649027137       -0.9083947491
 C          5.1314500785       -0.6815604853       -1.9288226523
 C          3.8074320517       -0.4852301232       -2.2862141822
 C          3.0364186169        0.4557868601       -1.6189798379
 H          1.9999475797        0.6172416980       -1.8730628650
 H          3.3599807635       -1.0612191115       -3.0810016140
 H          5.7218079242       -1.4183171258       -2.4504712397
 H          6.7338109720       -0.0853264056       -0.6347166581
 H          5.3488410607        1.6168942158        0.5502746673
 H          3.2032161243        1.9543115795        2.4867366576
 H          3.3013430141       -0.0537171138        3.6945252970
 H          2.5777350544       -2.4043979700        3.8905928287
 H          0.9821347462       -3.3492028055        2.2727941834
 H         -0.6673295823       -2.9826949201        0.6247727585
 C          0.6327166510       -2.6775861546       -1.0427943687
 C          1.2607807087       -4.0349062274       -0.9579185240
 C          0.0777685551       -3.8106698397       -1.8504300516
 H          0.2236047358       -3.7982440809       -2.9198863977
 H         -0.8755066996       -4.2188412915       -1.5470020451
 H          2.2282082143       -4.1808158256       -1.4125097164
 H          1.1076900567       -4.6069536064       -0.0558954434
 H          1.1721476576       -1.9067301021       -1.5761970081
