  62
        -98.94014653
 C         -1.6674726189       -1.4275695801        0.3886603498
 C         -1.5855414793       -0.3419551898       -0.5133909499
 C         -2.5277075198        0.7717737897       -0.2886566696
 C         -3.3809805998        0.7227044991        0.7511047103
 C         -4.4052673403        1.7209846185        1.2489417905
 C         -4.8720261807        2.8730773986        0.3626438108
 C         -5.6686766104        2.4496433686       -0.8710056793
 H         -5.8611026508        3.3390223387       -1.4751289491
 H         -6.6341537703        2.0558319181       -0.5434531095
 C         -5.0123454999        1.3859163391       -1.7477637896
 H         -5.6851481998        1.1819960290       -2.5852674297
 H         -4.9127419796        0.4561165190       -1.1838506599
 C         -3.6509774501        1.7640741198       -2.3282813094
 H         -3.7307002004        2.7112076399       -2.8654247792
 H         -3.3771840997        0.9919759601       -3.0524876396
 C         -2.5018385602        1.8728862800       -1.3103093793
 H         -2.4960482706        2.8487784999       -0.8303209891
 H         -1.5599402401        1.7675479806       -1.8570686793
 H         -4.0300018109        3.4960996390        0.0759140710
 H         -5.5272836610        3.4934966881        0.9801102709
 H         -5.2746017800        1.1274348981        1.5490769503
 H         -3.9875754705        2.1411769684        2.1705072907
 O         -3.3969365994       -0.3330076711        1.6162736800
 C         -2.5635506889       -1.4229657107        1.4593712398
 O         -2.7121746386       -2.3110986610        2.3213652295
 H          1.2304028814       -1.8789385783       -1.4638455502
 C          1.5259256413       -1.7986047085       -0.4303588701
 C          0.6499324114       -2.1827402891        0.5716214797
 C          1.0509610213       -2.0444912693        1.8976960998
 C          2.2990380611       -1.5379480989        2.2093620600
 C          3.1627544710       -1.1311220882        1.2065104802
 C          2.7624816511       -1.2506149981       -0.1173005999
 N          3.6010459009       -0.7765442974       -1.1415773397
 S          4.2884807703        0.7313904228       -0.9098479593
 O          4.4182610901        1.3034380332       -2.2324892591
 O          5.5232849703        0.5826818931       -0.1777389392
 C          3.1377209198        1.6824027421        0.0746083109
 C          1.7981613598        1.7047462816       -0.2603014591
 C          0.9288158595        2.4519317110        0.5184059210
 C          1.4069825391        3.1701171209        1.6029266212
 C          2.7559813191        3.1447856914        1.9203861913
 C          3.6290760195        2.3913266920        1.1529358612
 H          4.6828640295        2.3311488524        1.3722273912
 H          3.1278043288        3.7035360613        2.7640954515
 H          0.7225336988        3.7489605904        2.2029162014
 H         -0.1217228605        2.4549674106        0.2744570510
 H          1.4256449001        1.1358776217       -1.0978547493
 H          3.1848560910       -0.8405283573       -2.0597670298
 H          4.1328733308       -0.7163700979        1.4292900503
 H          2.5992642110       -1.4455250090        3.2419157300
 H          0.3622901014       -2.3270894398        2.6818462697
 C         -0.7548758283       -2.6385160497        0.2650862595
 H         -1.0704728981       -3.3352704700        1.0523921893
 C         -0.9018155780       -3.3206913793       -1.0790165607
 C         -0.3288159774       -4.6917064590       -1.2716529310
 C         -1.8138394575       -4.5019871597       -1.2058621010
 H         -2.3893333374       -4.6131333697       -2.1127850911
 H         -2.3331929074       -4.8310537802       -0.3176045612
 H          0.1621878128       -5.1486425791       -0.4257786011
 H          0.1169270028       -4.9372528286       -2.2235393111
 H         -0.8680222682       -2.6358301691       -1.9170781605
 O         -0.7697071793       -0.2845610492       -1.4710040298
