  62
        -98.93724440
 C         -1.8203233108       -0.4493563796        0.1670156302
 C         -2.9198012109       -0.5935026985        1.0412637503
 C         -4.2620789009       -0.6231489985        0.4281856003
 C         -4.3628200608       -0.5170433695       -0.9102285198
 C         -5.6134036507       -0.4744629297       -1.7475822199
 C         -6.3283708603        0.8847846106       -1.6756011909
 C         -6.4366666201        1.4823836717       -0.2750799514
 H         -5.4357942301        1.5914691417        0.1467186986
 H         -6.8570446398        2.4867618918       -0.3740580221
 C         -7.3157301604        0.7025422327        0.6997281792
 H         -8.3267363305        0.6314310527        0.2923244992
 H         -7.3706659903        1.2842158734        1.6236130587
 C         -6.8342516409       -0.7058974672        1.0538295802
 H         -7.0531454911       -1.4078329477        0.2537474608
 H         -7.4096836511       -1.0373906963        1.9232196105
 C         -5.3630320110       -0.7963104974        1.4468981104
 H         -5.1580935908       -0.0668716469        2.2390187098
 H         -5.1854728813       -1.7760033871        1.9071695411
 H         -5.7717098300        1.5916846299       -2.2957346614
 H         -7.3258469903        0.7732902406       -2.1039824009
 H         -5.3046547908       -0.6497404206       -2.7804362697
 H         -6.2824699310       -1.2802863093       -1.4607859193
 O         -3.2701539807       -0.3849122005       -1.7162294999
 C         -1.9824577707       -0.3496540105       -1.2143362398
 O         -1.0923285507       -0.2297810315       -2.0767575499
 O         -2.7932528710       -0.6846998076        2.2936420104
 C         -0.4188858508       -0.4151038596        0.7437364003
 C          0.3010634396        0.8565722499        0.3674316893
 C         -0.4010842100        2.0578311401        0.3162634984
 C          0.2344556405        3.2362536596       -0.0218940024
 C          1.5917054805        3.2487418689       -0.2904926124
 C          2.3080885601        2.0613792987       -0.2199458315
 C          1.6619506996        0.8748779192        0.1004602394
 H          2.2372625693       -0.0349644910        0.1467095901
 N          3.6861995401        2.0375936881       -0.4834404414
 S          4.6982714797        1.1521087485        0.5139409193
 O          4.1932112196        1.0907452996        1.8654636693
 O          6.0000138499        1.7648419479        0.3505595089
 C          4.7457485292       -0.4773899721       -0.2009682395
 C          4.8164567488       -1.5716562815        0.6379247213
 C          4.9096589884       -2.8386724919        0.0827794223
 C          4.9295242284       -2.9879045030       -1.2952095776
 C          4.8588684988       -1.8781150636       -2.1238836684
 C          4.7710686092       -0.6086692531       -1.5753543094
 H          4.7129377695        0.2738601364       -2.1900754800
 H          4.8715751888       -1.9984065244       -3.1952364083
 H          4.9991600781       -3.9745355933       -1.7255658969
 H          4.9645945281       -3.7022105415        0.7267042629
 H          4.7846725888       -1.4114393907        1.7037836812
 H          4.0879523804        2.9357631178       -0.7107114521
 H          2.0916007308        4.1693545286       -0.5513650531
 H         -0.3292282492        4.1560498697       -0.0690522731
 H         -1.4597159100        2.0551348406        0.5375302584
 H         -0.5507961709       -0.4174221688        1.8369971803
 C          0.3330522088       -1.6685165302        0.3433099012
 C          1.3439189885       -2.2818707798        1.2638506617
 C          0.0206090283       -2.9516235995        1.0516078422
 H         -0.0103852320       -3.8646570700        0.4765824529
 H         -0.7092814017       -2.9106394787        1.8470360921
 H          2.2217882084       -2.7362252305        0.8298307921
 H          1.5225828486       -1.7923349692        2.2097381314
 H          0.5167963588       -1.7160536010       -0.7244206687
