  62
        -98.94509920
 C         -2.5572901712       -0.0474979356        0.3811987537
 C         -2.2532243242        0.5781815632       -0.8518450800
 C         -1.9836208982        2.0212425685       -0.7885622876
 C         -2.0514431944        2.6541863561        0.3963161133
 C         -1.8246129155        4.1242986293        0.6007505930
 C         -0.3679487812        4.4430511498        0.9594169803
 C          0.6608547550        3.8052341539        0.0258873711
 H          1.6445831278        4.1639042667        0.3387176188
 H          0.6614827964        2.7223073516        0.1690330946
 C          0.4564580413        4.1153251611       -1.4633108923
 H          1.4291934455        4.3413336098       -1.9049109177
 H         -0.1674719346        5.0029713371       -1.5784371083
 C         -0.1407339030        2.9602379539       -2.2702981787
 H          0.0218805695        3.1642332177       -3.3322295212
 H          0.3897900534        2.0368599916       -2.0223809636
 C         -1.6431639247        2.7172241241       -2.0755165453
 H         -2.1859673810        3.6611691876       -2.1633464670
 H         -1.9817742970        2.0491285486       -2.8729039489
 H         -0.1735496839        4.0857682951        1.9736465829
 H         -0.2454430488        5.5283822779        0.9516672066
 H         -2.1082618083        4.6536678798       -0.3071436605
 H         -2.4684630734        4.4546764172        1.4184029354
 O         -2.3376568278        2.0168007107        1.5623255781
 C         -2.5700109769        0.6514936847        1.5859655208
 O         -2.7883686251        0.1857054711        2.7254933985
 H         -0.2404548657       -0.9379072785        0.5903688519
 C         -0.3931781680       -1.8435541593        0.0213393087
 C         -1.6849881852       -2.3135360563       -0.1752538284
 C         -1.8585416577       -3.4948804924       -0.8851234768
 C         -0.7629377739       -4.1723229976       -1.3930342265
 C          0.5183276047       -3.6844786522       -1.2194735991
 C          0.7020476366       -2.4978612971       -0.5155050415
 N          1.9858862717       -1.9439909580       -0.3838977123
 S          2.2749460295       -0.6146884782        0.5974776067
 O          2.0131662114       -0.9333831914        1.9861758732
 O          1.5815331781        0.5247857730        0.0556431735
 C          4.0293661803       -0.4329799170        0.3413906445
 C          4.9099637823       -1.0339111600        1.2209084987
 C          6.2720293160       -0.9116587540        0.9950925172
 C          6.7280056257       -0.1955758148       -0.1015145933
 C          5.8323391156        0.4046165109       -0.9740631838
 C          4.4692823219        0.2859661126       -0.7535924838
 H          3.7350255510        0.7413397921       -1.3978572757
 H          6.1898919870        0.9639609654       -1.8234453914
 H          7.7882675894       -0.1016862390       -0.2753766920
 H          6.9706079024       -1.3734486867        1.6740532466
 H          4.5094454190       -1.5702212858        2.0662323606
 H          2.7353887502       -2.6198257764       -0.3761802957
 H          1.3692991245       -4.2046184170       -1.6308432951
 H         -0.9112373314       -5.0916664743       -1.9390414918
 H         -2.8514152218       -3.8841867141       -1.0415744028
 C         -2.8353299354       -1.5382402142        0.4222617895
 H         -2.9093416332       -1.8053797775        1.4879916267
 C         -4.1615532396       -1.8373142369       -0.2496057007
 C         -5.0388743131       -2.9440046389        0.2513514202
 C         -5.4287108104       -1.5159224306        0.4824354144
 H         -6.2577824414       -1.1069606914       -0.0750871968
 H         -5.3312646425       -1.1115935908        1.4799194739
 H         -5.6062795758       -3.5169924272       -0.4665373591
 H         -4.6909111775       -3.5143579286        1.0994845229
 H         -4.1356624506       -1.6434491990       -1.3158710972
 O         -2.2268998358       -0.0339608570       -1.9519934903
