  62
        -98.94515447
 C          2.2654155876        0.7376157546       -0.0128455335
 C          3.2679372487        0.6717574297        0.9877408859
 C          4.1416338325       -0.5074196450        0.9523968457
 C          3.9224661059       -1.4588839152        0.0266334105
 C          4.7629390873       -2.6889836058       -0.1538568721
 C          5.8977560507       -2.4437990890       -1.1583949167
 C          6.6984148740       -1.1699844593       -0.8872240136
 H          7.4891398194       -1.1175388414       -1.6387114283
 H          6.0513424975       -0.3033154620       -1.0406374547
 C          7.3194976476       -1.0963137313        0.5146517630
 H          8.3512602404       -0.7507119044        0.4225160015
 H          7.3498507932       -2.0917753413        0.9589528786
 C          6.6118097194       -0.1355799210        1.4719490478
 H          6.4957170003        0.8395588488        0.9924205292
 H          7.2512849099        0.0041084284        2.3474897948
 C          5.2370388375       -0.5902539453        1.9781631517
 H          5.3097377805       -1.6015568919        2.3832399167
 H          4.9406363086        0.0836733781        2.7871630025
 H          6.5657152400       -3.3069051593       -1.1413232216
 H          5.4639527501       -2.3696022543       -2.1583677636
 H          5.1736137751       -2.9865845174        0.8090295912
 H          4.1232874290       -3.4897915526       -0.5289671849
 O          2.9263711290       -1.3817654484       -0.8916934840
 C          2.0797554341       -0.2833849327       -0.9449325046
 O          1.2319919061       -0.3438980112       -1.8569829641
 H         -0.7990667523        1.2705495066       -1.5977645595
 C         -1.0081491950        1.1670795159       -0.5449277002
 C         -0.0347962815        1.4903153815        0.3869354433
 C         -0.3205145893        1.3135324123        1.7382140615
 C         -1.5509455580        0.8312293043        2.1418010341
 C         -2.5189660048        0.5043123627        1.2075189339
 C         -2.2364731252        0.6586652860       -0.1423203298
 N         -3.2065626772        0.3168131022       -1.1002714584
 S         -4.0051110355       -1.1504430363       -0.9351362241
 O         -3.2022553596       -2.1286654787       -0.2381716636
 O         -4.4338434814       -1.5007469938       -2.2719900590
 C         -5.4407803692       -0.7330267506        0.0348516182
 C         -6.2494671613        0.2948353608       -0.4095513748
 C         -7.3742883183        0.6282492109        0.3276901801
 C         -7.6720891357       -0.0694849372        1.4888380622
 C         -6.8526204390       -1.1012699057        1.9198678783
 C         -5.7252745582       -1.4392337551        1.1870835633
 H         -5.0564402189       -2.2307595363        1.4863062114
 H         -7.0857335687       -1.6435125134        2.8221692154
 H         -8.5477867287        0.1923726502        2.0614261536
 H         -8.0135682882        1.4304280703       -0.0041164595
 H         -5.9843890416        0.8094544406       -1.3178641234
 H         -2.8881964543        0.4402116656       -2.0510580023
 H         -3.4760795641        0.1151277345        1.5138284412
 H         -1.7596810129        0.7039047651        3.1931790244
 H          0.4432380574        1.5470580242        2.4669074456
 C          1.3440123596        1.9470570820       -0.0192785611
 H          1.7298352152        2.6080209034        0.7684385856
 C          1.3838740444        2.6879459307       -1.3391419371
 C          0.8227787822        4.0754490725       -1.4171731706
 C          2.3037808053        3.8605319194       -1.4919465951
 H          2.8000515644        4.0044963560       -2.4400806541
 H          2.9050662026        4.1379815023       -0.6386417762
 H          0.4166844611        4.4975792699       -0.5105648935
 H          0.3000397482        4.3711749297       -2.3138691347
 H          1.2635829835        2.0413143983       -2.1999832563
 O          3.4254171112        1.5607878890        1.8661133355
