  62
        -98.93999269
 C         -1.5560582042       -1.4556262626       -0.0369914621
 C         -2.6455373487       -1.0093933567        0.7420688642
 C         -3.3653728165        0.1801119011        0.2508450660
 C         -2.9396558577        0.7925400101       -0.8700827417
 C         -3.4791571161        1.9963627337       -1.6154215593
 C         -4.5228241263        2.9092650784       -0.9775392912
 C         -4.0134495572        3.7303854821        0.2071038443
 H         -3.3149706316        4.4836093320       -0.1664895157
 H         -4.8617902047        4.2561467724        0.6504615784
 C         -3.2952809295        2.9395865008        1.2978452039
 H         -2.3954221423        2.4787938432        0.8843271874
 H         -2.9695280760        3.6472134669        2.0654960817
 C         -4.1341819762        1.8628646430        1.9833048707
 H         -5.0525522884        2.3057677602        2.3735520583
 H         -3.5585562961        1.4869433457        2.8339870115
 C         -4.5054038347        0.6556406770        1.1051682165
 H         -5.3818217546        0.8648168855        0.4966341698
 H         -4.7585901099       -0.1765526846        1.7687712513
 H         -5.4028740287        2.3382189071       -0.6969856488
 H         -4.8372883582        3.6128135772       -1.7531553274
 H         -2.6054057843        2.5962269970       -1.8897836870
 H         -3.8896066929        1.6039240281       -2.5522113840
 O         -1.8705120728        0.3296484598       -1.5826411877
 C         -1.1571259227       -0.7956850350       -1.1985899664
 O         -0.2147626234       -1.0908583560       -1.9529268265
 O         -3.0060916175       -1.5771860653        1.8094181919
 C         -0.7538852795       -2.6601988109        0.4193685682
 C          0.6944661686       -2.2706133959        0.5875264814
 C          1.7542036204       -3.0345766503        0.1177673935
 C          3.0589675349       -2.5972104604        0.2731158516
 C          3.3361277483       -1.3941256581        0.8946467414
 C          2.2831996430       -0.6274805887        1.3776291659
 C          0.9798856730       -1.0726048409        1.2315626284
 H          0.1630505343       -0.4690912540        1.6088254603
 N          2.5514764650        0.6122306707        1.9925551836
 S          3.4743496530        1.6890786830        1.0964750555
 O          4.8668789250        1.3408549928        1.2285944640
 O          3.1036890168        3.0005782548        1.5808963285
 C          2.9497003279        1.4697909912       -0.5930500782
 C          3.7953390363        0.8720666818       -1.5040228872
 C          3.3471938066        0.6714613838       -2.7996354937
 C          2.0690457657        1.0677550370       -3.1580940926
 C          1.2323049429        1.6700229299       -2.2319083823
 C          1.6732237239        1.8700054112       -0.9351150915
 H          1.0477544375        2.3353752840       -0.1885486161
 H          0.2329005365        1.9614029504       -2.5127967805
 H          1.7141960903        0.9003908253       -4.1624099050
 H          3.9927621227        0.2002372613       -3.5232346601
 H          4.7817527346        0.5791335574       -1.1835718375
 H          1.7211064491        1.0734326381        2.3361641023
 H          4.3444375850       -1.0312704736        1.0111445597
 H          3.8716060169       -3.1995225781       -0.1029566815
 H          1.5595264492       -3.9695544571       -0.3809780860
 H         -1.1586832632       -2.9301213144        1.4062359266
 C         -0.9612054523       -3.8236684482       -0.5273177902
 C         -0.8703190916       -5.2334433296       -0.0266604264
 C         -2.2021418475       -4.6524190699       -0.3923802592
 H         -2.6905279448       -5.0007425103       -1.2900496868
 H         -2.8859056344       -4.3942154655        0.4031937217
 H         -0.4460343169       -5.9851170624       -0.6750697729
 H         -0.6525382732       -5.3799864766        1.0204785006
 H         -0.6081818229       -3.6098628592       -1.5298856137
