  62
        -98.94702758
 C         -1.2587130148       -0.7618111799        0.6572531131
 C         -2.1101051448       -0.7244970677       -0.4726995548
 C         -2.8170039948        0.5425204098       -0.6969071131
 C         -2.5702968683        1.5982486937        0.0987354931
 C         -3.1809767599        2.9674806047       -0.0306714489
 C         -4.5612782023        3.1044429306        0.6269479491
 C         -5.7047037245        2.4022636888       -0.1064974695
 H         -6.6362893858        2.7593310515        0.3369179758
 H         -5.7039984331        2.7076551334       -1.1532831448
 C         -5.6689229617        0.8704370147       -0.0147123643
 H         -6.6662014359        0.4966464777        0.2274283275
 H         -5.0066435117        0.5701863280        0.8003558339
 C         -5.2211130717        0.1694713667       -1.2972752292
 H         -5.9481282951        0.3562820213       -2.0906687971
 H         -5.1959883538       -0.9068379997       -1.1093787443
 C         -3.8338311463        0.5943746820       -1.7969940829
 H         -3.5163147479       -0.1066777446       -2.5730929597
 H         -3.8772939758        1.5944371251       -2.2286010661
 H         -4.4988991846        2.7275311323        1.6503370389
 H         -4.7917020190        4.1710717236        0.6785738410
 H         -2.4930867613        3.6606013838        0.4589164740
 H         -3.2477244868        3.2378121557       -1.0851630855
 O         -1.6907839027        1.5432409037        1.1334494972
 C         -1.0232871509        0.3681773726        1.4393434288
 O         -0.2539685790        0.4586445465        2.4188086112
 H          1.3435677804       -0.3379836115        0.1179617213
 C          1.3638645976       -1.2392148607       -0.4744391108
 C          0.4898262410       -2.2718624222       -0.1552213136
 C          0.5231706104       -3.4326617387       -0.9140095565
 C          1.3863093351       -3.5306668098       -1.9928990989
 C          2.2169905641       -2.4814668543       -2.3385997704
 C          2.2047069115       -1.3203334900       -1.5703480942
 N          3.0509486202       -0.2504518260       -1.8807636297
 S          2.8008745493        1.3110912979       -1.3463155808
 O          1.4002868731        1.6564301144       -1.2690559296
 O          3.6025043162        2.1136651184       -2.2473198785
 C          3.5718627170        1.3192168790        0.2584257627
 C          4.9340491769        1.0879962247        0.3015820275
 C          5.5757819665        1.0758506467        1.5282811966
 C          4.8479234405        1.2929319972        2.6892779117
 C          3.4835498741        1.5270908309        2.6295504038
 C          2.8360200343        1.5436198204        1.4032240924
 H          1.7718638067        1.7131898184        1.3356609922
 H          2.9074337893        1.6897279272        3.5265206038
 H          5.3451841474        1.2803483402        3.6463601619
 H          6.6375278145        0.8958157954        1.5777282813
 H          5.4618006281        0.9323884999       -0.6245560156
 H          3.5147369880       -0.2982038481       -2.7745968730
 H          2.8674083272       -2.5524631835       -3.1968331862
 H          1.3984068307       -4.4332383114       -2.5850533237
 H         -0.1374918472       -4.2500686268       -0.6773227174
 C         -0.4722970177       -2.0224601303        0.9816676419
 H          0.1140693005       -1.7928497200        1.8829841304
 C         -1.3968850870       -3.1828955503        1.2767510479
 C         -0.9132215648       -4.3299565807        2.1106310705
 C         -1.9129826330       -3.3648068557        2.6713395495
 H         -2.9325232419       -3.6943676810        2.8042179374
 H         -1.5818011293       -2.6596507958        3.4200064676
 H          0.0988243576       -4.2838638814        2.4831147507
 H         -1.2475663060       -5.3256719039        1.8619038584
 H         -2.0789316853       -3.3924496395        0.4614219945
 O         -2.2780425373       -1.6949882303       -1.2570603197
