  62
        -98.94374007
 C         -1.4875920782       -1.2570714743        0.7172799393
 C         -2.5463458636       -1.1723528069       -0.2190287102
 C         -3.4299102710       -0.0027912505       -0.0792650323
 C         -3.1476984532        0.9386663206        0.8389443692
 C         -3.9270374608        2.2065623401        1.0354224967
 C         -3.3921459875        3.3461060888        0.1561227972
 C         -3.1949359344        2.9598111192       -1.3094595204
 H         -2.8310035381        3.8456615540       -1.8346482826
 H         -2.4136575968        2.1992528059       -1.3805065903
 C         -4.4582868504        2.4336593013       -2.0035047097
 H         -4.5455475909        2.9077295660       -2.9834107559
 H         -5.3425308420        2.7125659434       -1.4292129361
 C         -4.4601363737        0.9218655610       -2.2349113680
 H         -3.5333238452        0.6249121482       -2.7322915841
 H         -5.2847342167        0.6813656506       -2.9113216720
 C         -4.6329537910        0.0585116446       -0.9791833533
 H         -5.5091814837        0.3957739667       -0.4212277877
 H         -4.8112091918       -0.9690867220       -1.3093999092
 H         -4.0882270154        4.1844410353        0.2196904339
 H         -2.4305413938        3.6753192196        0.5557747121
 H         -4.9738411664        2.0194310983        0.8026578314
 H         -3.8464274714        2.4997718313        2.0834379462
 O         -2.0815359074        0.8568856080        1.6749962086
 C         -1.2407733524       -0.2406533362        1.6462349176
 O         -0.3203040522       -0.2045778118        2.4862024228
 H          1.9694228323       -1.5119173849        1.2895759471
 C          1.8199428842       -1.6366089248        0.2252374571
 C          0.6021542809       -2.1161844217       -0.2369493459
 C          0.4095612789       -2.2346514920       -1.6092426756
 C          1.4170953594       -1.8852690568       -2.4908185970
 C          2.6321121521       -1.4102150142       -2.0265665204
 C          2.8286653357       -1.2808711582       -0.6589117612
 N          4.0565851769       -0.7636990987       -0.1821834216
 S          4.2898612947        0.8722287799       -0.4627776413
 O          4.3057217609        1.0980375489       -1.8849084924
 O          5.4904143005        1.2268795252        0.2584622089
 C          2.8732860537        1.6656352960        0.2738125156
 C          1.6965415808        1.7319705365       -0.4444283321
 C          0.5771786947        2.2796966338        0.1595917498
 C          0.6489317471        2.7416121004        1.4638112126
 C          1.8376474842        2.6659418556        2.1717368340
 C          2.9608790204        2.1181114332        1.5749245127
 H          3.9050358008        2.0402280153        2.0903838319
 H          1.8863255407        3.0209194927        3.1885742147
 H         -0.2312922320        3.1484248129        1.9362449088
 H         -0.3520086653        2.3319352697       -0.3857965108
 H          1.6737244673        1.3603926241       -1.4565581013
 H          4.1979870353       -0.9404524606        0.8034200644
 H          3.4187432464       -1.1133898051       -2.7009620254
 H          1.2542811269       -1.9803574096       -3.5538652198
 H         -0.5457065590       -2.5743276468       -1.9784469304
 C         -0.4972666153       -2.4126429417        0.7529544591
 H         -0.0533209671       -2.3908656951        1.7573314316
 C         -1.1245118741       -3.7741588259        0.5413524043
 C         -0.3563780320       -4.9910203351        0.9583049623
 C         -1.5672287694       -4.5667659573        1.7327227879
 H         -2.4667517879       -5.1582611880        1.6515931459
 H         -1.4203768996       -4.1295552601        2.7098865462
 H          0.6126620788       -4.8406582865        1.4103382601
 H         -0.4214682970       -5.8764374183        0.3449138943
 H         -1.7332017735       -3.8434142884       -0.3493365450
 O         -2.7700848985       -2.0156356802       -1.1263190016
