  62
        -98.94093129
 C          2.2871901635       -0.5155916366       -0.1516993231
 C          3.5556184142       -1.0431008651       -0.4929469698
 C          4.6466139807       -0.0671929043       -0.6118808166
 C          4.3838304772        1.2383162641       -0.4180480556
 C          5.4098556799        2.3330085846       -0.4569895393
 C          6.0025811079        2.5885911758        0.9358695269
 C          6.4656103643        1.3199898001        1.6522724911
 H          6.8929108646        1.6251035306        2.6099519594
 H          5.5950258872        0.6979622494        1.8730066909
 C          7.4962318974        0.4912539746        0.8728564728
 H          7.9523109242        1.1043477647        0.0947975135
 H          8.2923586887        0.1900303034        1.5568477055
 C          6.9383086023       -0.7885606684        0.2476093103
 H          6.3979718874       -1.3610426921        1.0057148884
 H          7.7812403486       -1.3998954370       -0.0852569894
 C          6.0115210662       -0.5924050396       -0.9587908183
 H          6.4965324756        0.0516596106       -1.6949518148
 H          5.8471751918       -1.5732796147       -1.4142928978
 H          6.8426611429        3.2776983572        0.8321270522
 H          5.2407067006        3.0713184185        1.5524066717
 H          6.1990806656        2.0594178241       -1.1545071286
 H          4.9252103280        3.2452081257       -0.8089630754
 O          3.1466253400        1.7103110707       -0.1154567775
 C          2.0690334902        0.8492034184        0.0336840721
 O          0.9962959644        1.4148206210        0.3216906444
 H         -1.5647096625       -0.9915540304        0.5167683646
 C         -1.2986014965       -0.8833210023       -0.5203224303
 C          0.0064845678       -1.0859339934       -0.9394730230
 C          0.3053066216       -0.9387910900       -2.2921367238
 C         -0.6735031897       -0.5757285025       -3.1954683256
 C         -1.9699151992       -0.3470753807       -2.7682504912
 C         -2.2829392739       -0.5045824910       -1.4238622282
 N         -3.6089944717       -0.3279481689       -0.9820455516
 S         -3.9235534236        0.5122987748        0.4490781580
 O         -3.4384848603        1.8718996512        0.3543553177
 O         -3.4611243730       -0.2636048291        1.5706526108
 C         -5.7073741046        0.4972916019        0.4115878676
 C         -6.3589850175       -0.6824480870        0.7180604512
 C         -7.7433811932       -0.7150598914        0.6705466998
 C         -8.4498809829        0.4260939824        0.3199120925
 C         -7.7824880818        1.6031407137        0.0172078911
 C         -6.3973864896        1.6418094143        0.0611133366
 H         -5.8358571063        2.5355250435       -0.1594810379
 H         -8.3340398131        2.4895061752       -0.2520463181
 H         -9.5275118282        0.3983882259        0.2847076223
 H         -8.2660189101       -1.6277375983        0.9073719239
 H         -5.7687705168       -1.5407323345        0.9931957442
 H         -4.1983508533        0.0456415041       -1.7156058178
 H         -2.7333096255       -0.0509198249       -3.4720836121
 H         -0.4254747393       -0.4597495710       -4.2399763241
 H          1.3220285336       -1.1051185661       -2.6222663276
 C          1.1161684850       -1.4679080471        0.0080343602
 H          1.4993692612       -2.4552583042       -0.2911506283
 C          0.6830511678       -1.5343583995        1.4569914125
 C          0.0223225395       -2.7693959830        1.9895400812
 C          1.4237571022       -2.4330294883        2.3995692670
 H          1.6001838737       -2.0892038914        3.4077959429
 H          2.2319295174       -3.0211631254        1.9895862309
 H         -0.7705797806       -2.6535587094        2.7131447371
 H         -0.1216070956       -3.5912816764        1.3046159865
 H          0.3505198097       -0.5741985539        1.8384796479
 O          3.7628847828       -2.2699440949       -0.6942642487
