  62
        -98.94654633
 C         -1.0758191811       -1.8125678595       -0.2217903999
 C         -1.2220906811       -0.6240167298       -0.9810923104
 C         -2.5491877712        0.0118770900       -0.9310034708
 C         -3.5268439812       -0.5411484498       -0.1928215007
 C         -4.9079646213        0.0225591801       -0.0268347011
 C         -4.9944521316        0.9530509606        1.1902197586
 C         -3.8908907517        2.0099128007        1.2440434183
 H         -4.0827322819        2.6370744510        2.1177980681
 H         -2.9260889717        1.5237954709        1.4100198486
 C         -3.7939891116        2.8937562603       -0.0068460920
 H         -3.6716790318        3.9319505604        0.3094189976
 H         -4.7211616815        2.8341971699       -0.5791545021
 C         -2.6078902915        2.5637522200       -0.9150993517
 H         -2.4846890415        3.3876519498       -1.6245810620
 H         -1.6995123215        2.5092810304       -0.3085703716
 C         -2.7355779812        1.2703645897       -1.7308043913
 H         -3.6965129012        1.2580984994       -2.2505104514
 H         -1.9381395911        1.2680473295       -2.4798448312
 H         -5.9690631016        1.4450653905        1.1788690483
 H         -4.9304156616        0.3462521609        2.0964460988
 H         -5.6014563812       -0.8085017399        0.1143033492
 H         -5.1836537913        0.5634779598       -0.9301316013
 O         -3.3525716312       -1.6815735995        0.5230042098
 C         -2.1306073211       -2.3319062394        0.5334381402
 O         -2.1097596911       -3.3632801791        1.2372189106
 O         -0.3120854111       -0.1038112900       -1.6777501804
 C          0.2195169390       -2.6018539294       -0.1432301694
 C          1.1685706488       -2.0495742189        0.8949396905
 C          1.9644542988       -2.9018374185        1.6530868309
 C          2.8664364486       -2.3914794381        2.5689221608
 C          2.9997649885       -1.0253118480        2.7421073003
 C          2.2026680385       -0.1652856184        1.9943378199
 C          1.2956958886       -0.6822879488        1.0800056600
 H          0.6797247686       -0.0034741591        0.5149290296
 N          2.3027443583        1.2192557617        2.1510298194
 S          1.6650993783        2.3070253612        1.0669359689
 O          2.2929652781        3.5620159314        1.4323199885
 O          0.2248856183        2.2960971211        1.1395271287
 C          2.2221860886        1.8384899107       -0.5618766009
 C          1.4629558386        2.2409036202       -1.6406286111
 C          1.8876360388        1.9198052498       -2.9192144809
 C          3.0574096889        1.1997560898       -3.0965049105
 C          3.8135260088        0.8084371803       -2.0028615903
 C          3.3983366987        1.1340038207       -0.7219388404
 H          3.9708643286        0.8323766511        0.1400273397
 H          4.7219885389        0.2443738704       -2.1420216900
 H          3.3791254791        0.9381936995       -4.0925076404
 H          1.2955569289        2.2205637594       -3.7685408811
 H          0.5468417386        2.7802833502       -1.4623735314
 H          3.0886050182        1.5700217720        2.6749924394
 H          3.7044504583       -0.6252183477        3.4545614402
 H          3.4755380986       -3.0633504978        3.1540545811
 H          1.8637605489       -3.9694973186        1.5300792913
 H         -0.0657877510       -3.6158463193        0.1704137709
 C          0.9458871091       -2.6953926498       -1.4738866393
 C          1.8159128193       -3.8792279898       -1.7642482988
 C          0.5103750594       -3.7142362002       -2.4816905290
 H          0.5192147795       -3.4404753306       -3.5257053291
 H         -0.3073251206       -4.3662220302       -2.2093185788
 H          2.7289547494       -3.7200491899       -2.3165867087
 H          1.8832349493       -4.6540076695       -1.0160486685
 H          1.2637766891       -1.7305710699       -1.8477201596
