  62
        -98.94687355
 C          1.1558617259        1.1577089885       -0.1741578820
 C          2.0225954165        0.8429778859        0.9066610807
 C          2.8460496786       -0.3623695448        0.7574953176
 C          2.7230625187       -1.1041365633       -0.3578663126
 C          3.5442107063       -2.3197755444       -0.6752099363
 C          4.8075368660       -1.9439955542       -1.4623855216
 C          5.6016869931       -0.7941374006       -0.8426404670
 H          6.4867048707       -0.6382806114       -1.4633905637
 H          5.0069358653        0.1205345097       -0.8971745472
 C          6.0327067111       -1.0314381113        0.6115944658
 H          5.9750899213       -2.0948085899        0.8469064847
 H          7.0775748807       -0.7329216419        0.7199990792
 C          5.2336768033       -0.2383629435        1.6476532400
 H          5.7551502417       -0.3098109065        2.6059019405
 H          5.2142328882        0.8171285203        1.3647517982
 C          3.7896810102       -0.7031447482        1.8761889454
 H          3.4096498126       -0.1814145679        2.7591579972
 H          3.7783967190       -1.7759018627        2.0792156053
 H          5.4433606668       -2.8280136897       -1.5381030330
 H          4.5124563809       -1.6504924411       -2.4724158937
 H          2.9408977234       -2.9975663803       -1.2808888420
 H          3.8207039468       -2.8203155081        0.2508640894
 O          1.8582832391       -0.7957912814       -1.3534951149
 C          1.0581267018        0.3340311786       -1.2958358161
 O          0.3270051268        0.4676868302       -2.2986761171
 O          2.1086118747        1.5484324625        1.9463328836
 C          0.3357807967        2.4309296895       -0.0337764455
 C         -1.0749807572        2.1129670361        0.3973277003
 C         -1.5509156260        2.5007314344        1.6442110444
 C         -2.8342387997        2.1700339864        2.0458097768
 C         -3.6646347766        1.4349864867        1.2179413467
 C         -3.1922579742        1.0371773506       -0.0253158818
 C         -1.9153915417        1.3867401655       -0.4345213306
 H         -1.5545545626        1.0607914127       -1.3985060315
 N         -4.0061827677        0.2257597077       -0.8538322070
 S         -4.1810920988       -1.3390620778       -0.2776700006
 O         -4.7091056365       -2.1128408657       -1.3778317264
 O         -4.9858410686       -1.2981711598        0.9167737221
 C         -2.5292888203       -1.8824894892        0.1261401476
 C         -2.0046752296       -1.5750501442        1.3658092798
 C         -0.7049192387       -1.9563598649        1.6552946139
 C          0.0403938072       -2.6429860876        0.7098487287
 C         -0.4986284139       -2.9394206144       -0.5320297373
 C         -1.7929958489       -2.5482249407       -0.8324262421
 H         -2.2473074674       -2.7599694773       -1.7872729724
 H          0.0873223216       -3.4642936112       -1.2694422403
 H          1.0495886636       -2.9439174286        0.9428983634
 H         -0.2746972289       -1.7137232625        2.6138846536
 H         -2.6182092466       -1.0532941306        2.0818612347
 H         -3.6554332609        0.1786027800       -1.8015610151
 H         -4.6553358927        1.1399727480        1.5235549316
 H         -3.1892632008        2.4807138523        3.0166436399
 H         -0.9004167942        3.0506669565        2.3084680006
 H          0.8149691668        2.9912525372        0.7800416604
 C          0.3474913427        3.2933925697       -1.2808153508
 C          0.0121213258        4.7486202452       -1.1600237275
 C          1.4204004858        4.3251265943       -1.4491834520
 H          1.8204702359        4.4956621894       -2.4374337013
 H          2.1528777056        4.4187368531       -0.6606123472
 H         -0.5583403217        5.2127367555       -1.9497875648
 H         -0.2097730626        5.1306746891       -0.1751230092
 H          0.0174473873        2.7729532121       -2.1703168507
