  62
        -98.94472747
 C          1.5198534094        1.7605154956       -0.4622017585
 C          1.5460698871        0.5858809613       -1.2552743518
 C          2.7545613692       -0.2467973798       -1.1297667423
 C          3.7351234138        0.1228911524       -0.2884335350
 C          4.9901234845       -0.6581526655       -0.0291321445
 C          4.8148780237       -1.6249371944        1.1496693487
 C          3.5590044290       -2.4927891518        1.0615587945
 H          3.5678924770       -3.1665704920        1.9216527918
 H          2.6700231106       -1.8650196590        1.1629738995
 C          3.4419324996       -3.3147893127       -0.2292525705
 H          3.1283376346       -4.3279932429        0.0311291238
 H          4.4166608036       -3.3892522954       -0.7143359067
 C          2.4129407043       -2.7738432076       -1.2236916467
 H          1.4706394551       -2.5926362646       -0.6998642705
 H          2.2285469964       -3.5451522743       -1.9770443336
 C          2.8176040235       -1.4935845467       -1.9663945959
 H          3.8135398949       -1.6177879733       -2.3980162936
 H          2.1048249881       -1.3442769869       -2.7828713726
 H          4.7629097070       -1.0416996879        2.0720860688
 H          5.6968046459       -2.2664539675        1.2025048274
 H          5.7893570237        0.0466604516        0.2075633226
 H          5.2599123845       -1.2102461518       -0.9274180538
 O          3.6751992362        1.2540439947        0.4611272995
 C          2.5683678771        2.0829860089        0.4030688748
 O          2.6377184138        3.0796696498        1.1519778198
 O          0.6292151267        0.2345989256       -2.0403960348
 C          0.3486894139        2.7293503588       -0.4311194735
 C         -0.6255562962        2.3584836933        0.6605228799
 C         -1.2485873258        3.3367978770        1.4272245089
 C         -2.1406029515        2.9830587977        2.4241195642
 C         -2.4194184291        1.6534103674        2.6821781819
 C         -1.7862056342        0.6649407697        1.9343352292
 C         -0.9086130632        1.0262438451        0.9224142589
 H         -0.4158126782        0.2551695321        0.3552561501
 N         -2.0042824699       -0.6839040321        2.2215601228
 S         -1.7039487765       -1.9479170400        1.1774105350
 O         -2.2068486851       -3.1007769309        1.8949944850
 O         -0.3107452337       -1.9863744275        0.8168736680
 C         -2.7511604938       -1.6539505441       -0.2350811384
 C         -2.2391393634       -1.2026352211       -1.4333573908
 C         -3.1139117002       -0.9860497149       -2.4887339957
 C         -4.4707599225       -1.2141208603       -2.3297782090
 C         -4.9689214500       -1.6670580118       -1.1166901782
 C         -4.1026963578       -1.8906433498       -0.0607181155
 H         -4.4444838666       -2.2635833093        0.8911098618
 H         -6.0247334497       -1.8472975130       -0.9937733931
 H         -5.1428084587       -1.0402048022       -3.1553380324
 H         -2.7193178998       -0.6354557885       -3.4288018413
 H         -1.1823291174       -1.0131390007       -1.5425101335
 H         -2.7302868518       -0.8861422153        2.8902890607
 H         -3.1041061115        1.3772882439        3.4692148472
 H         -2.6192728423        3.7508348199        3.0127592120
 H         -1.0129879709        4.3765784580        1.2544329422
 H          0.7846134589        3.7045840570       -0.1588384204
 C         -0.3283316138        2.8971551240       -1.7848583191
 C         -1.6771703116        2.3326695927       -2.1011810145
 C         -1.5080812527        3.8113429519       -1.9378905764
 H         -1.5595802226        4.4388122731       -2.8147597429
 H         -1.9118135118        4.2642347850       -1.0457645732
 H         -1.8303393648        1.9309974855       -3.0903511277
 H         -2.1926534525        1.7855692523       -1.3267041677
 H          0.3934923793        2.8991125798       -2.5948369068
