  62
        -98.94048300
 C         -2.3602843037        0.7732163697        0.1434642458
 C         -3.5704444544        1.1043046206       -0.5117395721
 C         -4.7928426899        0.5347073299        0.0696896427
 C         -4.7000705010       -0.2342304440        1.1702324931
 C         -5.8573635125       -0.9201575719        1.8356221959
 C         -6.0617345314       -2.3345000632        1.2748081327
 C         -6.0886621249       -2.3951191383       -0.2524276293
 H         -5.1023143680       -2.1247640008       -0.6365002518
 H         -6.2684390282       -3.4350757966       -0.5333716291
 C         -7.1500991753       -1.4984087428       -0.9049514894
 H         -7.6570652369       -2.0680657944       -1.6866124626
 H         -7.9032713497       -1.2191206444       -0.1674296091
 C         -6.5948539087       -0.2347187354       -1.5646129188
 H         -7.3869483173        0.2063178807       -2.1755426003
 H         -5.7750289864       -0.5018414452       -2.2362566916
 C         -6.0965195465        0.8546730963       -0.6064413076
 H         -5.9136347744        1.7577117056       -1.1961126797
 H         -6.8692648089        1.0773399313        0.1319622523
 H         -6.9969323722       -2.7318806565        1.6733569587
 H         -5.2445446883       -2.9677249587        1.6278451726
 H         -6.7574540387       -0.3261975565        1.6897539587
 H         -5.6469719052       -0.9893268255        2.9041248245
 O         -3.5209902371       -0.5167432068        1.7813069435
 C         -2.3208282342       -0.0342891962        1.2799699684
 O         -1.3165692079       -0.3865831857        1.9270326911
 O         -3.6243902947        1.8369604334       -1.5363534994
 C         -1.0555978139        1.3166451486       -0.4097411124
 C         -0.1328116352        0.1801637469       -0.7737814978
 C         -0.6044770287       -0.8185440995       -1.6233092226
 C          0.2025409216       -1.8787681529       -1.9851303620
 C          1.5031263033       -1.9607337378       -1.5186547427
 C          1.9834859242       -0.9710198572       -0.6703572730
 C          1.1675382960        0.0918925921       -0.3054770972
 H          1.5687058539        0.8439932156        0.3526004625
 N          3.2887094282       -1.0406194605       -0.1585772852
 S          4.1446681400        0.3933463259        0.0820720712
 O          3.7778678332        0.9573373019        1.3564686564
 O          3.9946776223        1.2575834949       -1.0671065950
 C          5.8098635144       -0.2408451273        0.1637309312
 C          6.6105161606       -0.1936302142       -0.9619252630
 C          7.8930782733       -0.7149674136       -0.8947966935
 C          8.3495843319       -1.2745656765        0.2890427481
 C          7.5347387986       -1.3140343566        1.4109271168
 C          6.2519003121       -0.7932800948        1.3511816116
 H          5.5868077802       -0.7931390438        2.1990951921
 H          7.8941705848       -1.7470096163        2.3304978604
 H          9.3478801278       -1.6797085285        0.3390153828
 H          8.5302439497       -0.6822868230       -1.7638128788
 H          6.2156802729        0.2587051311       -1.8574064231
 H          3.8546707371       -1.7436616257       -0.6135226317
 H          2.1360346224       -2.7880771562       -1.8017359758
 H         -0.1796955202       -2.6454867011       -2.6423388286
 H         -1.6184125518       -0.7493573313       -1.9941136847
 H         -1.3274806082        1.8445108056       -1.3365587424
 C         -0.4424643191        2.3126746470        0.5509322044
 C          0.4840915358        3.3745382882        0.0415846707
 C         -0.8908516829        3.7415161700        0.5110367507
 H         -0.9927560816        4.2758259406        1.4436162018
 H         -1.6299314724        4.0085442403       -0.2301484936
 H          1.3334050502        3.6499873439        0.6492898046
 H          0.6851448072        3.3944838497       -1.0191701546
 H         -0.2338776432        1.8812006421        1.5242782406
