  62
        -98.94096490
 C          2.5861647831        1.3643973222        0.2550761638
 C          2.8113477868        0.5210621958       -0.8605037481
 C          3.6396430693       -0.6667548738       -0.6063375198
 C          4.1256021948       -0.9026962098        0.6248237912
 C          4.9879621984       -2.0659592704        1.0329237220
 C          4.1972669427       -3.3370724479        1.3718180807
 C          3.5897643841       -4.0648794390        0.1718858132
 H          4.3628355505       -4.2369098613       -0.5777593580
 H          3.2543594030       -5.0417520676        0.5255768825
 C          2.3989017538       -3.3411433338       -0.4727362056
 H          1.5911528994       -4.0542006112       -0.6561121485
 H          2.0032237989       -2.5940545198        0.2206068723
 C          2.7161958023       -2.6642290427       -1.8063190859
 H          1.8106931892       -2.1600937113       -2.1545315424
 H          2.9825012027       -3.4222711377       -2.5464118352
 C          3.8458823039       -1.6278226953       -1.7385663571
 H          4.8085050129       -2.1289220285       -1.6415678434
 H          3.8398593107       -1.0542217155       -2.6686767487
 H          4.8821397727       -4.0226244171        1.8760787480
 H          3.4048013314       -3.0785297944        2.0782519935
 H          5.7091251672       -2.2835930412        0.2447610179
 H          5.5315590142       -1.7508379130        1.9261061249
 O          3.8896604754       -0.0681462806        1.6712675506
 C          3.1058529187        1.0621242008        1.5178007843
 O          2.9548234365        1.7225202502        2.5650019180
 H          0.2558014033        0.9091812110       -1.2569175310
 C         -0.3176191510        1.3478331742       -0.4529657541
 C          0.2886777731        2.2774240426        0.3820890240
 C         -0.4580723673        2.8283986267        1.4158046538
 C         -1.7778729484        2.4557243031        1.6060847599
 C         -2.3770486935        1.5286012395        0.7723310180
 C         -1.6368555985        0.9689220827       -0.2611304710
 N         -2.2364052592        0.0148184748       -1.1089724091
 S         -2.8075716295       -1.3783503996       -0.3573893086
 O         -2.0779983879       -1.6577716325        0.8588786303
 O         -2.7823569427       -2.4055538199       -1.3756634239
 C         -4.5002274434       -0.9760720731        0.0207219651
 C         -4.9486919767       -1.0308449314        1.3256709593
 C         -6.2706598105       -0.7100494409        1.5934949136
 C         -7.1153106665       -0.3426078142        0.5571998062
 C         -6.6496511102       -0.2950323645       -0.7486010527
 C         -5.3298192411       -0.6153730833       -1.0232130733
 H         -4.9278258910       -0.5944610381       -2.0223890911
 H         -7.3095650435       -0.0088051503       -1.5516053153
 H         -8.1427150687       -0.0916628657        0.7687036142
 H         -6.6343014326       -0.7464299236        2.6078717060
 H         -4.2529109816       -1.3150438088        2.0990665913
 H         -1.6456981004       -0.2370361928       -1.8897334327
 H         -3.4026647405        1.2308754493        0.9184412791
 H         -2.3453754240        2.8898449851        2.4149659909
 H          0.0092731598        3.5366126389        2.0843114728
 C          1.7416034581        2.6288823285        0.1899486063
 H          2.0561765683        3.2265288803        1.0594509674
 C          2.0110567753        3.4601864585       -1.0579881334
 C          0.9799460188        3.7509736762       -2.1036405115
 C          1.4226565492        4.8357307414       -1.1717215394
 H          2.0398349285        5.6339433846       -1.5550347319
 H          0.7319779688        5.1412738667       -0.4000677240
 H          1.3084167799        3.7804605627       -3.1314858551
 H         -0.0110911093        3.3448375583       -1.9759898917
 H          3.0288666703        3.3380664066       -1.4133129164
 O          2.3563059837        0.7258229237       -2.0164617808
