  62
        -98.94894104
 C         -0.8649700857       -1.3564385303        0.1879017529
 C         -1.4542985987       -0.3239402362        0.9527758242
 C         -2.2835731295        0.6288375453        0.2071712081
 C         -2.3789427978        0.5238547911       -1.1310921616
 C         -3.1332138604        1.4597552835       -2.0371916454
 C         -4.6261879060        1.1322432819       -2.1754694463
 C         -5.4753195124        1.4548956675       -0.9453958970
 H         -5.3004135572        2.4891373265       -0.6474134171
 H         -6.5210927552        1.3750270004       -1.2485303117
 C         -5.2336538171        0.5231837802        0.2502493387
 H         -6.1934697971        0.2084221540        0.6658110478
 H         -4.7207934813       -0.3793516958       -0.0901368207
 C         -4.4304687477        1.1490376616        1.3901995634
 H         -4.9943936591        1.9788777672        1.8216027713
 H         -4.2959227346        0.3923824592        2.1671341742
 C         -3.0414020827        1.6621374468        0.9853024714
 H         -2.4767873271        1.8641296761        1.8983066426
 H         -3.1321105919        2.5846613697        0.4114364986
 H         -5.0098316189        1.7100873731       -3.0195511511
 H         -4.7287616466        0.0733290355       -2.4238807665
 H         -3.0152951475        2.4852308589       -1.6845777412
 H         -2.6654777825        1.3783079200       -3.0212036435
 O         -1.7665521329       -0.4634035357       -1.8363971119
 C         -1.0068069438       -1.4315579729       -1.1984929041
 O         -0.5280257794       -2.2943005810       -1.9598699440
 O         -1.2881224159       -0.1981530776        2.1961967354
 C          0.0226249071       -2.3726442590        0.8838761466
 C          1.4098289001       -2.3029510758        0.2949941234
 C          2.1617431655       -3.4186496809       -0.0477001130
 C          3.4061473188       -3.2674309658       -0.6356330188
 C          3.9150775869       -2.0114788533       -0.9093929223
 C          3.1764234706       -0.8882377112       -0.5534769013
 C          1.9528117422       -1.0433960680        0.0737876856
 H          1.3841702315       -0.1676447429        0.3511154403
 N          3.6545877931        0.4066530835       -0.8014978994
 S          2.5784926353        1.6399548719       -1.1512829685
 O          1.4257102600        1.1784339319       -1.8891569136
 O          3.3932825569        2.6392361009       -1.8131939764
 C          2.0991064234        2.2709036714        0.4421604210
 C          0.7779085514        2.5958366734        0.6742325629
 C          0.4260398340        3.1322978182        1.9025373180
 C          1.3953819238        3.3279468065        2.8734291523
 C          2.7184653117        2.9953296192        2.6248977590
 C          3.0783701742        2.4661421917        1.3962693047
 H          4.0955910722        2.1987665499        1.1639927228
 H          3.4686992255        3.1467191585        3.3841858053
 H          1.1147843928        3.7402863951        3.8297344038
 H         -0.6029292422        3.3889092132        2.0958704317
 H          0.0494580226        2.4073474965       -0.1003115699
 H          4.4893425044        0.4567956570       -1.3671077128
 H          4.8700633857       -1.8967603907       -1.3990231753
 H          3.9788829238       -4.1420048848       -0.9047816168
 H          1.7682494197       -4.4061251591        0.1295334498
 H          0.0725668602       -2.0480655944        1.9342295023
 C         -0.5931544837       -3.7545858799        0.8269020534
 C         -0.3274801570       -4.7477411271        1.9177107220
 C         -1.6754763515       -4.1040150046        1.8026115473
 H         -2.5071744503       -4.7002459638        1.4583553388
 H         -1.9485302249       -3.3516335207        2.5280241304
 H         -0.2356235973       -5.7905524122        1.6539573569
 H          0.3127620662       -4.4384289999        2.7297294073
 H         -0.6968411375       -4.1200809060       -0.1888314206
