  62
        -98.94289143
 C         -2.6261890285       -1.1999054642        0.2331430286
 C         -2.7695797052       -0.3178774621       -0.8652123397
 C         -3.8318200354        0.6931336079       -0.7452643416
 C         -4.6014016195        0.7245098321        0.3570600286
 C         -5.6786550170        1.7333035835        0.6280210277
 C         -5.1264235505        2.9455256335        1.3909992421
 C         -3.8534910329        3.5321442983        0.7807084622
 H         -3.5744522972        4.3996140284        1.3826122270
 H         -3.0446881363        2.8035010244        0.8736205420
 C         -3.9896268786        3.9528202831       -0.6893557464
 H         -5.0436619506        4.0569174449       -0.9492171591
 H         -3.5260248543        4.9332378841       -0.8174776683
 C         -3.3141760490        3.0078235665       -1.6850441327
 H         -3.2799271742        3.5064823087       -2.6575070595
 H         -2.2819286504        2.8258211399       -1.3746250203
 C         -4.0023554975        1.6522334907       -1.8901608907
 H         -5.0607130692        1.8062042256       -2.1095413748
 H         -3.5389537612        1.1718195847       -2.7569086992
 H         -5.9019878697        3.7126770080        1.4271801941
 H         -4.9041648719        2.6378106364        2.4153160181
 H         -6.1160939436        2.0528514054       -0.3158050019
 H         -6.4513530512        1.2558204146        1.2328424832
 O         -4.4483047039       -0.1476305798        1.3845795933
 C         -3.4632549482       -1.1171982382        1.3522636204
 O         -3.4347218946       -1.8459873841        2.3637110255
 O         -2.0606411909       -0.3487277007       -1.9082786347
 C         -1.5886829636       -2.3114975371        0.2877635915
 C         -0.2141712255       -1.7866049424        0.6304116445
 C          0.4284974526       -2.1885869254        1.7955749819
 C          1.6985826905       -1.7276090568        2.0946473501
 C          2.3515919995       -0.8555151246        1.2420995598
 C          1.7175053367       -0.4459259033        0.0765066308
 C          0.4464544535       -0.9150058147       -0.2236113606
 H         -0.0445323491       -0.5900289446       -1.1291647203
 N          2.3621969147        0.4574335277       -0.7876521988
 S          3.9185917086        0.0846670609       -1.2955186612
 O          4.0929422937        0.7924900843       -2.5449619014
 O          4.1365511528       -1.3432083858       -1.3300344607
 C          4.9638062083        0.8300232469       -0.0611598061
 C          5.8922779179        0.0600924795        0.6116475546
 C          6.7049499052        0.6648702321        1.5580723684
 C          6.5761633324        2.0216431064        1.8125256131
 C          5.6402023705        2.7814228737        1.1264790763
 C          4.8257091695        2.1832182743        0.1784372697
 H          4.0896048508        2.7380830867       -0.3790208009
 H          5.5428915203        3.8362579158        1.3270733370
 H          7.2090246647        2.4902154850        2.5495880003
 H          7.4334169420        0.0761593238        2.0920989969
 H          5.9531838600       -0.9922211106        0.3839753271
 H          1.7887633199        0.7320386962       -1.5728712849
 H          3.3403063077       -0.4923491516        1.4706793574
 H          2.1853055344       -2.0494492591        3.0026537647
 H         -0.0795220651       -2.8605417610        2.4721479265
 H         -1.9075479932       -2.9674304994        1.1087131277
 C         -1.5411695123       -3.1350258254       -0.9859789299
 C         -0.9788331602       -4.5221294460       -0.9320748872
 C         -2.4502101738       -4.3162934896       -1.1302295743
 H         -2.8764827910       -4.5227849963       -2.1004802317
 H         -3.1120005517       -4.5405395655       -0.3060755716
 H         -0.3892629866       -4.8712016843       -1.7660561129
 H         -0.6430969008       -4.8886806404        0.0262288651
 H         -1.3466659712       -2.5473396323       -1.8734600309
