  62
        -98.93511882
 C         -2.1985130795       -1.0379635499        0.5536359609
 C         -2.0508320295        0.2031803798       -0.1067624896
 C         -3.1701195796        1.1532879298        0.0360057299
 C         -4.2420949797        0.7970818300        0.7653132899
 C         -5.5028255598        1.5861534900        0.9873567095
 C         -6.5727466596        1.2041728695       -0.0496616505
 C         -6.5128804695        1.9922194090       -1.3576058508
 H         -7.2319510994        1.5385821287       -2.0435998807
 H         -6.8383731696        3.0182432691       -1.1737074713
 C         -5.1417701194        2.0293552288       -2.0377164507
 H         -5.2966130693        2.2766293384       -3.0898739108
 H         -4.6860390794        1.0379399289       -2.0037046502
 C         -4.1889848896        3.0635211692       -1.4198291109
 H         -3.7776401295        3.6938249589       -2.2110674411
 H         -4.7564652797        3.7228477294       -0.7633184013
 C         -2.9926491196        2.4776357595       -0.6553323906
 H         -2.1608891295        2.3167401393       -1.3488401504
 H         -2.6461053498        3.2108964499        0.0806113592
 H         -6.4709672895        0.1360884795       -0.2584082301
 H         -7.5594098897        1.3576422896        0.3919911593
 H         -5.2994485098        2.6525636700        0.9682237391
 H         -5.8685551599        1.3145724904        1.9797295395
 O         -4.3414645997       -0.4121885897        1.3842458104
 C         -3.3353189596       -1.3549553197        1.2959088709
 O         -3.5599724096       -2.4144783095        1.9150972713
 O         -1.0344676995        0.5067313096       -0.7859896196
 C         -1.1084718995       -2.0873874899        0.4469060515
 C          0.2285671705       -1.5215409096        0.8584980314
 C          0.3114215203       -0.7054252992        1.9835118411
 C          1.5210331802       -0.1771362190        2.3908353910
 C          2.6814896203       -0.4562592892        1.6890906413
 C          2.6130242905       -1.2761745696        0.5723430316
 C          1.3966005606       -1.8079586298        0.1674179617
 H          1.3683156507       -2.4404419002       -0.7069049781
 N          3.8078964906       -1.5578094598       -0.1413454882
 S          4.2367289006       -0.3689086502       -1.2606273286
 O          3.1253464907       -0.0346449406       -2.1243867988
 O          5.4125147708       -0.8846389904       -1.9280760582
 C          4.6718787704        1.0239378202       -0.2480581391
 C          3.7404309203        2.0226675402       -0.0431126596
 C          4.0811209002        3.0952809006        0.7661059900
 C          5.3372402501        3.1478196509        1.3516463702
 C          6.2608110002        2.1360666809        1.1338969107
 C          5.9273367303        1.0602250705        0.3266819511
 H          6.6124248504        0.2538832505        0.1235765415
 H          7.2364318001        2.1824389011        1.5902274208
 H          5.5973065199        3.9843931912        1.9809424499
 H          3.3635870901        3.8816459206        0.9373403196
 H          2.7737398604        1.9387449000       -0.5148095897
 H          3.7566290407       -2.4357562100       -0.6426490078
 H          3.6313109802       -0.0589266590        2.0070329412
 H          1.5629636200        0.4553144414        3.2643841008
 H         -0.5942215698       -0.4844737290        2.5323513009
 H         -1.3788195995       -2.8802616096        1.1605896417
 C         -1.1043729592       -2.6756132804       -0.9504637983
 C         -0.7275514491       -4.1092021805       -1.1720813077
 C         -2.1559204791       -3.6788967507       -1.3134629980
 H         -2.5892104490       -3.6388132311       -2.3016327781
 H         -2.8556484992       -3.9605391704       -0.5399235980
 H         -0.1810620990       -4.3666789608       -2.0675390475
 H         -0.4607282592       -4.6971519302       -0.3067125974
 H         -0.8229331492       -1.9489321307       -1.7056576586
