  62
        -98.95212031
 C          2.3546314326        0.3577913470        0.0426098205
 C          1.5202738512       -0.2195688537       -0.9423347152
 C          1.5379086813       -1.6853980477       -1.0244744226
 C          2.3209629520       -2.3810784474       -0.1802675928
 C          2.4488605960       -3.8767594024       -0.1615728466
 C          1.4616705958       -4.5274032296        0.8155449631
 C          0.0183345976       -4.0505001983        0.6529257082
 H         -0.5933138333       -4.6237624348        1.3540803894
 H         -0.0568491765       -3.0034562395        0.9557793279
 C         -0.5501955531       -4.2056056125       -0.7644293852
 H          0.0436616677       -4.9262615864       -1.3288544328
 H         -1.5635295613       -4.6058765932       -0.6884943158
 C         -0.6480092896       -2.8934664233       -1.5451371800
 H         -1.1161809104       -2.1379289723       -0.9090114970
 H         -1.3027611469       -3.0543776943       -2.4061181180
 C          0.6778733077       -2.3308883614       -2.0742394211
 H          1.2292771742       -3.1169540509       -2.5953450175
 H          0.4423156846       -1.5411518927       -2.7936499447
 H          1.5063366105       -5.6098464330        0.6770483231
 H          1.7816027236       -4.3019889131        1.8356508457
 H          2.2821746909       -4.2585117516       -1.1672866460
 H          3.4658989104       -4.1262180748        0.1474634274
 O          3.0910173755       -1.7929691344        0.7717331198
 C          3.1141347362       -0.4156672167        0.9179218131
 O          3.8453644704       -0.0062706425        1.8443452609
 H          0.4302856456        0.8606217130        1.6539724473
 C          0.1232430422        1.7637782820        1.1466699838
 C          1.0254693461        2.4368525037        0.3331462739
 C          0.6072904120        3.6043884375       -0.2938847081
 C         -0.6887022300        4.0629947867       -0.1317544759
 C         -1.5987949131        3.3586733255        0.6350921334
 C         -1.1865570397        2.1955147641        1.2746808397
 N         -2.0783641987        1.4255295931        2.0509184562
 S         -2.3874532536       -0.1366189859        1.5248114343
 O         -3.3555389816       -0.6631278638        2.4634254360
 O         -1.1532885040       -0.8667545791        1.4054335238
 C         -3.1704523888        0.0769465204       -0.0644761289
 C         -2.4053574551        0.4069057606       -1.1653572428
 C         -3.0456796300        0.6325512718       -2.3749648928
 C         -4.4248277297        0.5293717394       -2.4637899759
 C         -5.1778827095        0.1982584258       -1.3470691557
 C         -4.5470319677       -0.0256481466       -0.1346185322
 H         -5.0885901704       -0.2882868865        0.7598746749
 H         -6.2505771323        0.1158368913       -1.4169345457
 H         -4.9143315302        0.7070271937       -3.4084339397
 H         -2.4514776618        0.8888468085       -3.2373471304
 H         -1.3312894294        0.4782297567       -1.0850440468
 H         -2.9573688487        1.8891460484        2.2376309116
 H         -2.6177598061        3.7003468452        0.7387074680
 H         -0.9993411348        4.9709490160       -0.6256772316
 H          1.2956222835        4.1528671259       -0.9158839710
 C          2.4156562386        1.8681743035        0.1853834042
 H          2.9718516242        2.0659990661        1.1138801190
 C          3.1827971103        2.4619864031       -0.9797269720
 C          3.9996529810        3.7051621271       -0.7984346091
 C          4.6787226908        2.3810540222       -0.9737603752
 H          5.1886240571        2.1787337878       -1.9036775766
 H          5.1438404247        1.9222863151       -0.1130093554
 H          4.0485492446        4.4139828529       -1.6113145918
 H          4.0165182163        4.1547267943        0.1829112316
 H          2.6781249998        2.3118918486       -1.9274303812
 O          0.8074016536        0.4604272642       -1.7275079550
