  62
        -98.94579770
 C         -1.6906398008       -1.2981949818        0.3872435620
 C         -1.2967744389       -0.2013931302       -0.4161562909
 C         -1.8881862507        1.0981056030       -0.0684363655
 C         -2.6864786888        1.1937599770        1.0090139761
 C         -3.3877399015        2.4444094440        1.4518334065
 C         -4.7825197034        2.5556999552        0.8197062084
 C         -4.7951001535        2.3322981057       -0.6925431502
 H         -4.5182357170        1.2964039645       -0.9011848923
 H         -5.8246883839        2.4646898436       -1.0317482028
 C         -3.8712678313        3.2716685557       -1.4801238682
 H         -4.4129867945        3.6454985106       -2.3514281501
 H         -3.6099549135        4.1340231892       -0.8658338733
 C         -2.5915267899        2.6137921845       -1.9992469402
 H         -2.1244089125        3.2967499530       -2.7134531204
 H         -2.8453916459        1.6977661174       -2.5384081496
 C         -1.5374526343        2.2726628252       -0.9377978301
 H         -0.6158365521        1.9964205154       -1.4580859006
 H         -1.3275642914        3.1519574845       -0.3248219568
 H         -5.1859055731        3.5440289845        1.0475529881
 H         -5.4318077966        1.8087736345        1.2826185000
 H         -2.7817438304        3.3072387415        1.1814779871
 H         -3.4896864593        2.4132335314        2.5381692573
 O         -2.9851107694        0.1337178131        1.8033452800
 C         -2.4923120568       -1.1285505859        1.5176291542
 O         -2.8312115606       -2.0077622560        2.3367892629
 O         -0.4952437864       -0.2922711373       -1.3825983472
 C         -1.1460347511       -2.6957653339        0.1418673750
 C          0.3405797753       -2.6156854857       -0.1081225699
 C          0.9830678108       -3.1974409747       -1.1931265160
 C          2.3512126286       -3.0587532833       -1.3548457805
 C          3.1001445857       -2.3194917103       -0.4581409835
 C          2.4651391643       -1.7339442536        0.6312242354
 C          1.1052155171       -1.9122884742        0.8154769727
 H          0.6260765348       -1.4511384305        1.6678623346
 N          3.1721842085       -0.9400026724        1.5608677312
 S          2.7760726543        0.6893337065        1.6081773586
 O          3.6431658689        1.2587867021        2.6183260408
 O          1.3601658715        0.8470262629        1.8192868121
 C          3.2618172725        1.3082094426        0.0061540082
 C          4.4708148686        1.9684613404       -0.1071473468
 C          4.8892666486        2.3955076987       -1.3566348234
 C          4.0994819853        2.1466069050       -2.4692693041
 C          2.8923156279        1.4780902101       -2.3385168503
 C          2.4640555321        1.0500557118       -1.0905313112
 H          1.5264270375        0.5291449496       -0.9685946196
 H          2.2734125702        1.2788679562       -3.1987828467
 H          4.4252608905        2.4754057501       -3.4435536339
 H          5.8274686356        2.9167420140       -1.4587933562
 H          5.0485864058        2.1402212411        0.7867647647
 H          4.1770276881       -1.0278216952        1.4850933415
 H          4.1625518355       -2.1881804316       -0.5992903922
 H          2.8366205528       -3.5153693248       -2.2038255547
 H          0.4112666194       -3.7418555563       -1.9264037355
 H         -1.2953679259       -3.2287063697        1.0961419879
 C         -1.9011327968       -3.4824207646       -0.9198172496
 C         -3.3249622059       -3.1554885803       -1.2559857441
 C         -2.2403269958       -2.8927408385       -2.2546645145
 H         -2.1840437686       -3.5288859921       -3.1258250240
 H         -1.9420583709       -1.8726835872       -2.4359569123
 H         -4.0085827854       -3.9716312452       -1.4361839035
 H         -3.7767082404       -2.3124724528       -0.7527529626
 H         -1.6469705863       -4.5376566002       -0.9011129630
