  62
        -98.93614765
 C          1.4222575294        1.3762434005        0.3108144759
 C          2.1053180167        0.9030741799       -0.8332292735
 C          3.1355638757       -0.1297723006       -0.6021234033
 C          3.3711386661       -0.5427515807        0.6572114448
 C          4.3211388891       -1.6249376598        1.0894710806
 C          3.7403467586       -3.0363862004        0.8628604881
 C          2.8643008766       -3.1882350658       -0.3809678523
 H          2.3484982915       -4.1500652399       -0.3135110543
 H          2.0962517198       -2.4116804743       -0.3743705780
 C          3.6105517109       -3.1546840779       -1.7140530452
 H          4.2236508885       -4.0556974273       -1.7963043855
 H          2.8658963822       -3.1862601098       -2.5138914258
 C          4.5203591106       -1.9486140426       -1.9399490290
 H          5.3721497818       -1.9947215891       -1.2664641190
 H          4.9208614626       -2.0284274549       -2.9551340488
 C          3.8388509781       -0.5832020143       -1.8575357895
 H          4.5856441730        0.1853091499       -2.0935257427
 H          3.0845235632       -0.5141235520       -2.6494749800
 H          3.1219197589       -3.2853051851        1.7279660229
 H          4.5620549606       -3.7523098913        0.8197104913
 H          5.2705207272       -1.4993290709        0.5764194886
 H          4.4987999370       -1.4885806538        2.1579961279
 O          2.6939213594       -0.0522674115        1.7315960035
 C          1.7098302684        0.9094970797        1.5928785937
 O          1.1712727163        1.2587532665        2.6609020410
 H         -0.3949886242       -0.1423363680       -0.3361921919
 C         -1.0588288920        0.5663657089       -0.8165715787
 C         -0.8144881386        1.9257698882       -0.6844573069
 C         -1.6913787735        2.8105358966       -1.3038006151
 C         -2.7755550268        2.3454826882       -2.0274746929
 C         -3.0108711270        0.9878475498       -2.1570915075
 C         -2.1353388601        0.0979552815       -1.5547321162
 N         -2.3917344435       -1.2951868827       -1.6523448231
 S         -3.5213817742       -1.8215331277       -0.5284016595
 O         -3.5035724005       -3.2653163498       -0.5846291140
 O         -4.7783692968       -1.1812040326       -0.8160763782
 C         -2.8736908626       -1.2484974946        1.0307255592
 C         -3.1850076336        0.0275167979        1.4556307062
 C         -2.5694654505        0.5214341187        2.5944252121
 C         -1.6529664371       -0.2596013894        3.2810219386
 C         -1.3546975617       -1.5407934972        2.8430076157
 C         -1.9633034229       -2.0396629238        1.7027619209
 H         -1.7532829788       -3.0287071025        1.3261777052
 H         -0.6376673925       -2.1423663995        3.3788768953
 H         -1.1534823593        0.1383618701        4.1497181147
 H         -2.7930795844        1.5192560166        2.9358899302
 H         -3.8974129284        0.6069510412        0.8907488714
 H         -1.5554058434       -1.8529769432       -1.5451012991
 H         -3.8584713768        0.6047100167       -2.7010978385
 H         -3.4468181395        3.0488160651       -2.4959140885
 H         -1.5247341046        3.8717526871       -1.2128734670
 C          0.3283173812        2.4143902184        0.1744934639
 H         -0.0660447646        2.5690802257        1.1905240416
 C          0.9069378022        3.7254390383       -0.3255542715
 C          0.4028588809        5.0353018470        0.1993878433
 C          1.7568489485        4.5377009331        0.6037099482
 H          2.6322447612        5.0295452591        0.2070154487
 H          1.8850404506        4.1630210663        1.6091634680
 H          0.3490839930        5.8749254297       -0.4773390585
 H         -0.3809897441        5.0127977121        0.9415204860
 H          1.2125932759        3.6731406752       -1.3640834072
 O          1.8571703078        1.3038410784       -2.0010848442
