  62
        -98.94288733
 C         -2.4903264613       -0.2172642558       -0.2468555241
 C         -2.2996905407       -1.4161035091       -0.9778864304
 C         -1.7229394934       -2.5427721108       -0.2393932502
 C         -1.4042527320       -2.3924102857        1.0585930644
 C         -0.7779118934       -3.4365881644        1.9420741171
 C          0.7500023314       -3.5018361251        1.8063384383
 C          1.2588426723       -4.1649903367        0.5252726022
 H          2.3219524950       -4.3664927615        0.6713803465
 H          0.7587314064       -5.1249883462        0.3891987574
 C          1.0914290204       -3.3064311289       -0.7360527712
 H          0.9343770393       -2.2658670067       -0.4420960770
 H          2.0147002350       -3.3404273302       -1.3198700639
 C         -0.0428375453       -3.7469400882       -1.6622576433
 H         -0.0997704231       -3.0393707372       -2.4934375680
 H          0.1822196094       -4.7339760707       -2.0735606449
 C         -1.4237755445       -3.8019571442       -0.9967784118
 H         -2.1773996795       -3.9032087805       -1.7820544082
 H         -1.4888208340       -4.6656409476       -0.3352913222
 H          1.1449510632       -2.4838954479        1.8685754495
 H          1.1320817424       -4.0642294961        2.6619642484
 H         -1.0225926476       -3.1631174062        2.9708265361
 H         -1.2104033506       -4.4146494730        1.7279554192
 O         -1.6332921964       -1.2390201103        1.7371933645
 C         -2.1194373776       -0.1101172789        1.0957359300
 O         -2.1934652492        0.8928060929        1.8333439564
 O         -2.5847182907       -1.5321106062       -2.2012612265
 C         -2.9373700745        1.0132740310       -1.0197697727
 C         -1.9797251600        2.1389588280       -0.7153957343
 C         -2.3635796805        3.4168709508       -0.3353745535
 C         -1.4076641815        4.3612189167        0.0008482483
 C         -0.0635499857        4.0397457644        0.0047082519
 C          0.3306220295        2.7636594933       -0.3823531820
 C         -0.6221140905        1.8479351962       -0.7888959002
 H         -0.3087271600        0.8624109588       -1.0996519442
 N          1.6896964658        2.3735763050       -0.3685985829
 S          2.1054440605        1.0686304353        0.6304318133
 O          1.2076912917       -0.0345000261        0.4223417528
 O          2.2514080559        1.5445717586        1.9922849218
 C          3.7124621578        0.6720870507       -0.0309253980
 C          3.7847679577       -0.1656170463       -1.1265590349
 C          5.0265855402       -0.4543352574       -1.6694786716
 C          6.1693799333        0.1000760784       -1.1124740697
 C          6.0813676742        0.9388278524       -0.0118748597
 C          4.8419089315        1.2301155772        0.5359306671
 H          4.7273300590        1.8654044745        1.3992991558
 H          6.9717034984        1.3656626530        0.4209356376
 H          7.1344413663       -0.1258821358       -1.5376834604
 H          5.0974734029       -1.1087861749       -2.5233283849
 H          2.8707767403       -0.5793075029       -1.5211515176
 H          2.2912676940        3.1468582247       -0.1101738726
 H          0.6760426760        4.7627978923        0.3161868746
 H         -1.7178394970        5.3521568002        0.2969311643
 H         -3.4094905102        3.6691632541       -0.2724410338
 H         -2.8065184299        0.7279896372       -2.0779157532
 C         -4.4015965815        1.3874656688       -0.8527904017
 C         -5.4096122181        0.3783711929       -0.3924077068
 C         -5.0420132431        1.5279179429        0.4945469708
 H         -5.7675504920        2.3155987311        0.6371788315
 H         -4.4256809829        1.3365952643        1.3586750795
 H         -6.3831981696        0.3758162296       -0.8592700143
 H         -5.0470663155       -0.6047189956       -0.1283460476
 H         -4.7354285731        2.0765817136       -1.6226444837
