  62
        -98.93556199
 C         -2.2698222948       -1.2627804945        0.1635670628
 C         -3.2234306557       -0.6214061372        0.9897146257
 C         -4.0516698288        0.4351655729        0.3759078936
 C         -3.8257360310        0.7649908790       -0.9090793973
 C         -4.5024867205        1.8278277880       -1.7334885111
 C         -4.0214325391        3.2446965344       -1.3824389908
 C         -3.9143964775        3.5346121618        0.1124402204
 H         -3.2255416101        2.8197547423        0.5669753242
 H         -3.4698434327        4.5270079209        0.2263971593
 C         -5.2374072603        3.5232856502        0.8749497792
 H         -5.0230736858        3.8412043886        1.8985126166
 H         -5.9108259663        4.2607351315        0.4328470467
 C         -5.9627101429        2.1771607593        0.9387972049
 H         -6.4817859016        1.9655455599        0.0078796117
 H         -6.7325669866        2.2596286467        1.7114392987
 C         -5.0800736374        0.9958200101        1.3287964487
 H         -5.7266523570        0.1504088281        1.5936871195
 H         -4.5377806824        1.2407990861        2.2492347584
 H         -4.6977427971        3.9637886353       -1.8476520832
 H         -3.0290768769        3.3827168605       -1.8197923254
 H         -4.2482846840        1.6239278530       -2.7760465064
 H         -5.5809586966        1.7493247107       -1.6334167432
 O         -2.8563118012        0.1596056970       -1.6525617276
 C         -2.0572432084       -0.8565410149       -1.1544106770
 O         -1.2244229192       -1.2910210891       -1.9709978853
 O         -3.3779912188       -0.9109996145        2.2074111303
 C         -1.4167711662       -2.3545535325        0.7847497227
 C          0.0375295356       -2.1140283845        0.4656288646
 C          0.8417236658       -3.0185049194       -0.2137490956
 C          2.1628632940       -2.7102391908       -0.4885919677
 C          2.7106280362       -1.5047928030       -0.0912941071
 C          1.9137614894       -0.5899380188        0.5848291384
 C          0.5935581646       -0.9041907056        0.8644651951
 H         -0.0297301090       -0.1870285720        1.3862541507
 N          2.4619244473        0.6368258006        1.0018092755
 S          3.2992170636        1.5564714030       -0.1279760522
 O          3.2149081777        2.9152186681        0.3642076066
 O          2.8189275245        1.3290093034       -1.4709576579
 C          4.9798400417        0.9889168742        0.0294368817
 C          5.6630318038        0.5452132290       -1.0857379459
 C          6.9733634734        0.1158010750       -0.9417915784
 C          7.5738323363        0.1389171541        0.3076498805
 C          6.8744832652        0.5900169043        1.4173093881
 C          5.5649252067        1.0216363417        1.2802092295
 H          4.9878453611        1.3822725869        2.1151350727
 H          7.3446533181        0.6062087352        2.3873080757
 H          8.5929340943       -0.1967989750        0.4171290396
 H          7.5181599269       -0.2349126745       -1.8035597229
 H          5.1520876800        0.5393462563       -2.0355959453
 H          1.8093455421        1.2175383888        1.5088977333
 H          3.7366778483       -1.2594878232       -0.3116378153
 H          2.7746315460       -3.4190903449       -1.0254974811
 H          0.4275887855       -3.9532106417       -0.5535728014
 H         -1.5507954680       -2.2162101426        1.8711606028
 C         -1.8811093586       -3.7687933592        0.4720999110
 C         -3.3189202341       -4.0585764167        0.1641354415
 C         -2.2807133654       -4.1989733549       -0.9063371153
 H         -2.0121360024       -5.1941465746       -1.2296343241
 H         -2.2429862656       -3.4602273364       -1.6913034948
 H         -3.7614522884       -4.9534548576        0.5752237557
 H         -3.9983080872       -3.2201773168        0.1102545315
 H         -1.3649237795       -4.5052783983        1.0802252085
