  62
        -98.93566893
 C          1.9611116400        0.5453047305        0.1728418602
 C          2.6622354201       -0.6847563595        0.2749619099
 C          4.0477808002       -0.7012459892       -0.2146443998
 C          4.5692617502        0.4265936310       -0.7300595993
 C          5.9885746103        0.6043264813       -1.1890901789
 C          6.9190916800        0.7655037009        0.0299989714
 C          7.9235376301       -0.3726314390        0.2111560512
 H          8.7238960702       -0.2605790987       -0.5233113486
 H          8.3681591698       -0.2621106893        1.2025218614
 C          7.3575643802       -1.7892360590        0.0742682006
 H          7.2456561005       -2.0399470287       -0.9816408295
 H          8.1079816802       -2.4721804291        0.4782089706
 C          6.0225562801       -2.0495201894        0.7840213302
 H          5.8816608398       -1.3504201097        1.6087142904
 H          6.0586164200       -3.0503934395        1.2193331299
 C          4.7882481103       -2.0076721492       -0.1362079400
 H          5.0730652205       -2.3259634688       -1.1430754701
 H          4.0503833402       -2.7241116294        0.2373353896
 H          7.4743937599        1.7005672710       -0.0569608182
 H          6.2990285898        0.8505867806        0.9248613813
 H          6.2899710605       -0.2500051785       -1.7911476191
 H          6.0191445504        1.4988572715       -1.8113664486
 O          3.8664380401        1.5822278210       -0.8226311690
 C          2.5510726100        1.6775929007       -0.3889745693
 O          2.0535872000        2.8057867407       -0.5691879490
 H         -1.3895076100       -1.3348400499        0.5981868488
 C         -1.4096513098       -0.6855516696       -0.2638651310
 C         -0.4811155099        0.3372000405       -0.3901493704
 C         -0.5324489097        1.1528631408       -1.5162018402
 C         -1.4850572494        0.9359703811       -2.4946007305
 C         -2.4192311994       -0.0766431690       -2.3582952710
 C         -2.3834963496       -0.8892240994       -1.2324581013
 N         -3.3313861595       -1.9154593495       -1.0445900218
 S         -4.3046431298       -1.8248572701        0.3163942980
 O         -3.4981618901       -1.9354565904        1.5036069681
 O         -5.3170523197       -2.8386276301        0.1256114674
 C         -5.0438796600       -0.2036645701        0.2153919084
 C         -6.2957331498       -0.0772629100       -0.3547748319
 C         -6.8415898999        1.1875421600       -0.5026472316
 C         -6.1234795801        2.3004369199       -0.0919236710
 C         -4.8662979702        2.1569574098        0.4747875492
 C         -4.3173892701        0.8941225498        0.6331804289
 H         -3.3434649402        0.7505556897        1.0718755991
 H         -4.3055814603        3.0217295098        0.7913676696
 H         -6.5452270001        3.2857579399       -0.2125482408
 H         -7.8204265698        1.3017101001       -0.9398426118
 H         -6.8180050997       -0.9702365400       -0.6582743423
 H         -3.9068941493       -2.0890815093       -1.8571864820
 H         -3.1674925892       -0.2395617888       -3.1193306612
 H         -1.5078164793        1.5697341814       -3.3680153802
 H          0.1839527503        1.9534972009       -1.6171187497
 C          0.5382670499        0.5559417802        0.7025336999
 H          0.4797154398       -0.3067593300        1.3807551596
 C          0.1857708396        1.8033193099        1.4905354902
 C         -0.8952123406        1.7231758195        2.5250833499
 C          0.5360170593        1.8748351194        2.9448043303
 H          0.8601391991        2.8215095793        3.3499473307
 H          1.0318120592        1.0202703093        3.3823597301
 H         -1.3682122906        0.7647000194        2.6863331195
 H         -1.5564702407        2.5672784494        2.6478116301
 H          0.2690089396        2.7144502701        0.9126924905
 O          2.1476019500       -1.7273938497        0.7638182695
