  62
        -98.94341113
 C         -1.5352702589       -1.5509710634       -0.2201067284
 C         -1.3757783223       -0.1455992549       -0.3171937381
 C         -2.6140787519        0.6243209396       -0.5247024448
 C         -3.7927662848       -0.0178251438       -0.5987581479
 C         -5.1274196651        0.6514701607       -0.7508528454
 C         -5.7564350284        0.9512197099        0.6170942776
 C         -4.8084853967        1.6470936069        1.5940805328
 H         -5.3692248440        1.8338745558        2.5126343766
 H         -3.9944349867        0.9643547585        1.8485136545
 C         -4.2191336590        2.9667354640        1.0766445643
 H         -4.8171793444        3.3367778386        0.2430179962
 H         -4.2782469741        3.7115086538        1.8731536504
 C         -2.7518629277        2.8830556211        0.6511729232
 H         -2.1633605236        2.4250707228        1.4500218619
 H         -2.3811088855        3.9019291885        0.5131744954
 C         -2.4764741682        2.1155655915       -0.6476631052
 H         -3.1169378896        2.4977253095       -1.4450938963
 H         -1.4326315074        2.2937787441       -0.9212125765
 H         -6.6416626737        1.5707963829        0.4618798994
 H         -6.0772554551        0.0075767368        1.0647385953
 H         -5.0034499939        1.5736134395       -1.3152365916
 H         -5.7876310476       -0.0175317774       -1.3055241672
 O         -3.9075460628       -1.3666063650       -0.4867899552
 C         -2.7912829229       -2.1600891508       -0.2766574628
 O         -3.0450862067       -3.3753403450       -0.1528238774
 H          2.2159546958       -1.4585420439       -0.2377291695
 C          1.8265977977       -1.3971764678        0.7638764362
 C          0.5582780237       -1.8706244323        1.0577521669
 C          0.0899458894       -1.7639077182        2.3646858722
 C          0.8693726623       -1.1881416413        3.3491290526
 C          2.1285876221       -0.6995595391        3.0486808931
 C          2.6056554170       -0.8045311433        1.7474844099
 N          3.8830252171       -0.3309408092        1.4213533257
 S          4.2528681229        0.2505845813       -0.0961521075
 O          4.3379023191       -0.8380753732       -1.0385122745
 O          5.4826678945        0.9892757832        0.1111218749
 C          2.9711170818        1.3935164122       -0.5749577549
 C          2.4287813153        1.3047262786       -1.8386863708
 C          1.4902761294        2.2428784512       -2.2339781324
 C          1.1114676141        3.2487007328       -1.3606184167
 C          1.6599458420        3.3198812948       -0.0902000586
 C          2.6017873632        2.3870264755        0.3081101354
 H          3.0487669525        2.4241214498        1.2885206702
 H          1.3520711078        4.0968580162        0.5913777273
 H          0.3807296186        3.9799492709       -1.6709887031
 H          1.0522001293        2.1799096722       -3.2179878285
 H          2.7448304920        0.5017878008       -2.4854709043
 H          4.3532885838        0.1848724416        2.1496278016
 H          2.7365165116       -0.2404068649        3.8133156504
 H          0.4917640566       -1.1100695563        4.3576951533
 H         -0.9017785915       -2.1304251174        2.5949036182
 C         -0.3469952481       -2.4696793376        0.0109974079
 H         -0.7758313262       -3.3987615487        0.4218254179
 C          0.3929253224       -2.8566927055       -1.2605414531
 C         -0.3386037440       -3.0328086470       -2.5566237472
 C          0.6178912743       -1.8929806460       -2.3848541200
 H          1.5650538611       -1.9331203751       -2.9039520227
 H          0.2201684308       -0.8962463932       -2.2766952413
 H         -0.0554457477       -3.8537230115       -3.1981782704
 H         -1.3971505500       -2.8168568395       -2.5656190761
 H          1.1940843960       -3.5629649185       -1.0618536674
 O         -0.2723477716        0.4492711409       -0.2367834536
