  62
        -98.94514918
 C         -2.4576346694       -1.1761236198       -0.0603877000
 C         -3.5675935494       -0.8716570297        0.7670907300
 C         -4.5175251195        0.1092201101        0.2329648197
 C         -4.3003419096        0.6576256798       -0.9762926904
 C         -5.1877640897        1.6581899695       -1.6658239907
 C         -4.9445134199        3.1108302896       -1.2338048311
 C         -5.4441503299        3.4658524499        0.1672724288
 H         -5.4091557400        4.5537304200        0.2528611685
 H         -6.4874891399        3.1648362199        0.2666656489
 C         -4.6184228398        2.8546928304        1.3079995990
 H         -4.4167496399        3.6194732606        2.0614113788
 H         -3.6507707698        2.5252586704        0.9215667190
 C         -5.2929630597        1.6827646705        2.0211841993
 H         -6.1954055697        2.0323732905        2.5273534292
 H         -4.6054987896        1.3032431108        2.7812519894
 C         -5.6710420596        0.5159918502        1.0995552896
 H         -5.9366343895       -0.3411771597        1.7229920398
 H         -6.5314676396        0.7836769499        0.4869141295
 H         -5.4569363600        3.7541982994       -1.9528716513
 H         -3.8745523199        3.3213550297       -1.3039058812
 H         -6.2331689297        1.3976018394       -1.4979931506
 H         -4.9757948797        1.5770648392       -2.7341350007
 O         -3.2238773796        0.3372761897       -1.7422720304
 C         -2.2685986395       -0.5685051601       -1.3015001401
 O         -1.3313863495       -0.7456614802       -2.1044525901
 O         -3.7566464193       -1.3994385194        1.8947740701
 C         -1.4310297293       -2.1709794895        0.4557077603
 C         -0.1422549894       -1.4304642593        0.7111858801
 C         -0.0348581594       -0.6372455390        1.8509704699
 C          1.1065203805        0.1034591412        2.0900239097
 C          2.1630029105        0.0759774811        1.1952873497
 C          2.0575965206       -0.6958306292        0.0469509499
 C          0.9166135106       -1.4554074494       -0.1815416299
 H          0.8452158607       -2.0421380897       -1.0834885198
 N          3.1195979306       -0.7303643694       -0.8710246501
 S          3.8963310304        0.6995262606       -1.2761722405
 O          3.0220193103        1.8441631005       -1.1647982708
 O          4.4764825204        0.4560421703       -2.5791078105
 C          5.2088211904        0.8110936811       -0.0756739806
 C          6.0321811705       -0.2851420288        0.0925295097
 C          7.0637008005       -0.2125866684        1.0147989897
 C          7.2564698304        0.9494710218        1.7470339794
 C          6.4242906903        2.0429606517        1.5637331591
 C          5.3896351503        1.9762755413        0.6432929991
 H          4.7142832402        2.7996051312        0.4717823589
 H          6.5756140402        2.9459628218        2.1331204488
 H          8.0596196204        1.0032317221        2.4649057394
 H          7.7126701006       -1.0611313783        1.1600194399
 H          5.8504483406       -1.1680144290       -0.4970822200
 H          2.9213541306       -1.2780229096       -1.6960202100
 H          3.0517662604        0.6599878112        1.3695682495
 H          1.1768791104        0.7108289315        2.9796549595
 H         -0.8668607994       -0.6020740589        2.5406844399
 H         -1.8240583792       -2.5162404393        1.4216685404
 C         -1.2881879991       -3.3635331798       -0.4656641694
 C         -0.6127434090       -4.6034945695        0.0367172810
 C         -2.0933064590       -4.5973046898       -0.1936022590
 H         -2.4883761990       -5.1488601100       -1.0335758989
 H         -2.7459403690       -4.5872686696        0.6669051010
 H          0.0107520811       -5.1635797597       -0.6433326689
 H         -0.2580531790       -4.5968349792        1.0561069010
 H         -1.1430824192       -3.0887029500       -1.5037412894
