  62
        -98.94218812
 C          1.9490754694        1.2025727398        0.5174758801
 C          1.6728698193       -0.0942236504        0.0220620704
 C          2.7529284593       -1.0762529003        0.1798660304
 C          3.9050918294       -0.7155583502        0.7741430400
 C          5.0945104195       -1.6055013302        1.0126821199
 C          6.0337952592       -1.7236563005       -0.1955951503
 C          5.5001213889       -2.5649930507       -1.3558394300
 H          6.3377728687       -2.7443709809       -2.0327595101
 H          5.1722107290       -3.5346510706       -0.9800881097
 C          4.3613111087       -1.9059666609       -2.1468198898
 H          4.3397191888       -0.8348527208       -1.9322367101
 H          4.5518946984       -2.0125374211       -3.2172367998
 C          2.9764510088       -2.4931427608       -1.8737000993
 H          2.9460299687       -3.5319228609       -2.2101004091
 H          2.2436748286       -1.9297533609       -2.4577422693
 C          2.5480643091       -2.4425998605       -0.4013232693
 H          1.4801599791       -2.6689226904       -0.3498380389
 H          3.0942869493       -3.1886519703        0.1752715208
 H          6.2712714591       -0.7190400005       -0.5532313006
 H          6.9623737293       -2.1784663504        0.1568183496
 H          5.6531118097       -1.1632003000        1.8402713897
 H          4.7574355996       -2.5983064701        1.3113060502
 O          4.1207580696        0.5374636299        1.2565350897
 C          3.1609109696        1.5276749799        1.1268868697
 O          3.4934408797        2.6345070100        1.5963768694
 H         -1.5701576409        2.3752002495       -0.8521266493
 C         -1.5859018407        1.9286932097        0.1302361608
 C         -0.4213080905        1.8271952799        0.8758259205
 C         -0.4926171102        1.2424734801        2.1380558307
 C         -1.6843808601        0.7428079303        2.6257895311
 C         -2.8352325503        0.8091157301        1.8589251413
 C         -2.7789671106        1.4086769998        0.6099358812
 N         -3.9611624208        1.4208094597       -0.1858485285
 S         -4.0054142110        0.1061029094       -1.2511560382
 O         -2.9419953913        0.2031090492       -2.2286049985
 O         -5.3421973512        0.0982732193       -1.8071950679
 C         -3.7733544408       -1.2932557603       -0.1822710779
 C         -4.8910498307       -1.8754569902        0.3834666625
 C         -4.7237496105       -2.9418642500        1.2515944227
 C         -3.4469252804       -3.3994010700        1.5412618525
 C         -2.3369075505       -2.8016897601        0.9644725120
 C         -2.4940019607       -1.7357907003        0.0917925318
 H         -1.6447204508       -1.2479551104       -0.3626343785
 H         -1.3423108605       -3.1513420101        1.1923076119
 H         -3.3142792502       -4.2267259698        2.2207123226
 H         -5.5849154304       -3.4095752199        1.7009989830
 H         -5.8613853707       -1.4834091202        0.1259489626
 H         -4.0340329109        2.2592386295       -0.7491312687
 H         -3.7690936402        0.4048012202        2.2138214417
 H         -1.7162078398        0.2866289405        3.6032239612
 H          0.4126229400        1.1699702503        2.7260048905
 C          0.9151749594        2.3040794297        0.3656685801
 H          1.2565330795        3.1373924499        0.9969407298
 C          0.8805595590        2.7695958794       -1.0761872100
 C          0.4990999590        4.1802639593       -1.4086857402
 C          1.9230763389        3.7350935193       -1.5500230005
 H          2.3293984187        3.6095678491       -2.5425783106
 H          2.6442710791        4.0785868594       -0.8226911008
 H         -0.0710867413        4.3621653091       -2.3077612701
 H          0.2538287092        4.8391184995       -0.5893804303
 H          0.5798506388        1.9838445192       -1.7620690298
 O          0.5836666791       -0.4195753505       -0.5177472992
