  62
        -98.94386867
 C         -1.7922490449       -0.5323939329       -0.3731293039
 C         -3.0455134420       -1.1551171799       -0.5838064837
 C         -4.1306609177       -0.7263500540        0.3056905811
 C         -3.8876334917        0.1889681845        1.2616743174
 C         -4.8828295968        0.7067982762        2.2644205602
 C         -5.7627157429        1.8493649791        1.7390977905
 C         -6.8318753574        1.4344662114        0.7275763895
 H         -7.5089462668        2.2830796969        0.6108985294
 H         -7.4146127593        0.6076910764        1.1350955903
 C         -6.2821310624        1.0485806906       -0.6527997786
 H         -5.2618007107        1.4245736613       -0.7567770426
 H         -6.8808164089        1.5286162277       -1.4301487252
 C         -6.2873148771       -0.4528084952       -0.9404327687
 H         -5.8471239143       -0.6141747115       -1.9277989642
 H         -7.3165421532       -0.8176028258       -0.9677444138
 C         -5.4986563987       -1.2927885834        0.0727568332
 H         -5.3766342200       -2.2987393982       -0.3367366371
 H         -6.0475700044       -1.3626749715        1.0118005891
 H         -5.1180320472        2.6118169169        1.2959748111
 H         -6.2630434066        2.2973671817        2.6007399818
 H         -4.3038805641        1.0797318255        3.1121736832
 H         -5.5154385712       -0.1114780911        2.6098271904
 O         -2.6634746717        0.7503491672        1.4443408626
 C         -1.5907855982        0.4183877497        0.6278009371
 O         -0.5375421736        1.0232120717        0.8964815075
 O         -3.2439405576       -2.0331043358       -1.4665996227
 C         -0.6263413435       -0.9157579039       -1.2636583429
 C          0.5258177578       -1.4624935790       -0.4563786457
 C          0.2760491617       -2.2526067553        0.6621212755
 C          1.3130481316       -2.7518708769        1.4271929525
 C          2.6282985067       -2.4884221282        1.0863343804
 C          2.8904121210       -1.7225652465       -0.0398076462
 C          1.8462379282       -1.2162897656       -0.8046863115
 H          2.0719434421       -0.6181337915       -1.6742594373
 N          4.2356221058       -1.4592264350       -0.3853619255
 S          5.0502936837       -0.3658754385        0.5902512222
 O          6.4025684788       -0.3147519145        0.0830304133
 O          4.8927428455       -0.7648345471        1.9643982837
 C          4.2344731539        1.1894834713        0.2796034637
 C          4.8398530997        2.1130446873       -0.5507468519
 C          4.1609696504        3.2794863531       -0.8627468503
 C          2.8854391002        3.4915306994       -0.3598025758
 C          2.2891293110        2.5529088709        0.4681089785
 C          2.9704344030        1.3913497251        0.7965383664
 H          2.5215837103        0.6504455646        1.4381708720
 H          1.2874436026        2.6883068676        0.8441505450
 H          2.3500291022        4.3928170244       -0.6150872385
 H          4.6218891888        4.0145791806       -1.5030187828
 H          5.8274272831        1.9005975159       -0.9275799741
 H          4.3524602586       -1.1815259919       -1.3506384479
 H          3.4497368460       -2.8503648388        1.6823690096
 H          1.0959340583       -3.3527450258        2.2976270688
 H         -0.7490409604       -2.4641749291        0.9344892694
 H         -1.0065611488       -1.7251568352       -1.9058438849
 C         -0.2303453904        0.2564807440       -2.1399543486
 C          0.2800926344        0.0321831879       -3.5315915868
 C         -1.0899231705        0.6001218166       -3.3181063994
 H         -1.2610788408        1.6410773008       -3.5472714364
 H         -1.9427857179       -0.0347744386       -3.5099280406
 H          1.0501178564        0.6875965388       -3.9107053695
 H          0.3538072218       -0.9866761936       -3.8814614698
 H          0.1870023731        1.0776986212       -1.5673852018
