  62
        -98.94413836
 C          1.7148296069        1.4517301592        0.2085927069
 C          2.0159053590        0.6946481154       -0.9495860436
 C          2.9050976231       -0.4621095089       -0.7539358139
 C          3.3288846124       -0.7751666817        0.4833513467
 C          4.1973467530       -1.9500680301        0.8258668752
 C          3.3673066234       -3.2007725636        1.1475136159
 C          2.2990229011       -3.5254005446        0.1034974440
 H          1.8056000306       -4.4477101583        0.4172030772
 H          1.5393442819       -2.7418690980        0.1083032175
 C          2.8322840322       -3.6900887127       -1.3257392171
 H          3.9089816719       -3.8626984578       -1.3059998346
 H          2.3702222030       -4.5726373276       -1.7731571058
 C          2.5248742620       -2.5102198129       -2.2496143588
 H          1.4572936818       -2.2776570376       -2.2019345084
 H          2.7423810370       -2.8168366920       -3.2764703720
 C          3.3201712656       -1.2261290737       -1.9807354618
 H          4.3860886486       -1.4607153683       -1.9397875491
 H          3.1512099414       -0.5512409621       -2.8251458585
 H          4.0490925323       -4.0473898764        1.2455544021
 H          2.8721558248       -3.0528661881        2.1099159708
 H          4.8659149872       -2.1525994947       -0.0089607827
 H          4.7946705985       -1.6884376260        1.7009953779
 O          2.9769642226       -0.0593314195        1.5807956080
 C          2.1896272066        1.0746795989        1.4705100515
 O          1.9819425954        1.6556298947        2.5522474908
 H         -0.4981872225        1.2683678133       -1.6296266159
 C         -1.1346302928        1.5682921464       -0.8101202297
 C         -0.6072754915        2.3447308360        0.2111778325
 C         -1.4388660205        2.7132034490        1.2617352816
 C         -2.7637611806        2.3112639090        1.2872884407
 C         -3.2769432020        1.5097185067        0.2830280001
 C         -2.4480092593        1.1291259474       -0.7640615998
 N         -2.9266151567        0.2213483070       -1.7321087882
 S         -3.4700197481       -1.2322737764       -1.0874794375
 O         -3.0716687609       -2.2567893046       -2.0275491242
 O         -4.8867659499       -1.1342142309       -0.8369775974
 C         -2.6137093406       -1.4178647461        0.4717712934
 C         -3.3522680042       -1.5322660000        1.6318371308
 C         -2.6907759536       -1.6103350661        2.8467396966
 C         -1.3067002877       -1.5543438047        2.8820163209
 C         -0.5779871864       -1.4423084249        1.7082298898
 C         -1.2327329575       -1.3819663922        0.4891953682
 H         -0.6832884355       -1.2955701547       -0.4360624798
 H          0.4986885562       -1.3812667861        1.7433054240
 H         -0.7860291642       -1.5911388066        3.8258086268
 H         -3.2544024435       -1.7011243647        3.7611075080
 H         -4.4274688897       -1.5486765516        1.5586437408
 H         -2.2495061458        0.0414425120       -2.4610782629
 H         -4.2952625818        1.1553267098        0.3019056239
 H         -3.3984769485        2.6086329032        2.1076068479
 H         -1.0346855437        3.3002938993        2.0729854219
 C          0.8570782960        2.7109958158        0.1974773737
 H          1.0814701947        3.2304293421        1.1382450822
 C          1.1771538299        3.6450197920       -0.9531344390
 C          0.8104776806        5.0923566761       -0.8341187229
 C          2.2495845784        4.6766044446       -0.7836929144
 H          2.8845597491        4.9023868225       -1.6272193056
 H          2.7591727606        4.7167117978        0.1682152977
 H          0.4538278185        5.6066674634       -1.7132630470
 H          0.3451281786        5.4172328132        0.0841081807
 H          1.0853238004        3.1808665112       -1.9259984194
 O          1.5820281778        0.9473543888       -2.1070194964
