  62
        -98.93472064
 C         -1.7139178465       -0.4492560340        0.6803136297
 C         -2.6794798349       -0.9352269464       -0.2312718239
 C         -3.9967655101       -0.2649152424       -0.2203817752
 C         -4.2186630401        0.7385383107        0.6460170102
 C         -5.4632809127        1.5680704122        0.8379296334
 C         -6.8014460050        0.8128460025        0.8457400087
 C         -7.6560914400        1.0771571271       -0.3950725902
 H         -8.7023103135        0.8865182757       -0.1456126235
 H         -7.5713395637        2.1341426345       -0.6561817866
 C         -7.3095829972        0.2259659271       -1.6154170513
 H         -7.6329983177       -0.8026441279       -1.4417492821
 H         -7.8866965435        0.6095372775       -2.4601226311
 C         -5.8290108971        0.2072856421       -2.0007668116
 H         -5.3956604102        1.2020078955       -1.9027863374
 H         -5.7627702017       -0.0657251136       -3.0560997894
 C         -4.9986360260       -0.8087898049       -1.2025807258
 H         -5.6618369060       -1.5042859798       -0.6803705344
 H         -4.4059091973       -1.4189678751       -1.8909069932
 H         -6.6238339674       -0.2548905993        0.9639064601
 H         -7.3650823276        1.1446737302        1.7192762845
 H         -5.3185158483        2.0765557413        1.7939707336
 H         -5.4815383231        2.3476198990        0.0720752104
 O         -3.2566794956        1.1746772089        1.5101956346
 C         -1.9985489028        0.6076852482        1.5481510824
 O         -1.2344478159        1.1157426719        2.3943621258
 H          1.4886964501        0.9792460033        0.8187089433
 C          1.4089081677        0.5328812566       -0.1618677182
 C          0.5284487605       -0.5192275206       -0.3764263622
 C          0.4252086469       -1.0536679701       -1.6568048736
 C          1.1830787108       -0.5393502611       -2.6926169586
 C          2.0712604203        0.4985074939       -2.4716881285
 C          2.1814059341        1.0406418128       -1.1972470277
 N          3.0783633124        2.0946610340       -0.9386114328
 S          4.1624443916        1.9125689439        0.3245836869
 O          3.4846762991        2.0323266115        1.5893393165
 O          5.2009781200        2.8838600058        0.0589130393
 C          4.7976951899        0.2602864422        0.1080753058
 C          5.7819583177        0.0567254164       -0.8395864114
 C          6.2268666635       -1.2331620603       -1.0782791451
 C          5.6743747750       -2.2936471416       -0.3761863719
 C          4.6879825171       -2.0729803103        0.5723873704
 C          4.2422105824       -0.7839566591        0.8189446549
 H          3.4802510137       -0.5684626091        1.5506591273
 H          4.2603738951       -2.8991216168        1.1178765521
 H          6.0154486627       -3.2989621231       -0.5661696481
 H          6.9977734997       -1.4081748478       -1.8112574753
 H          6.1899762620        0.9101521083       -1.3566162731
 H          3.5602589568        2.4292404168       -1.7612814466
 H          2.6673091216        0.8952007367       -3.2796860950
 H          1.0863770021       -0.9565167790       -3.6833561311
 H         -0.2786137511       -1.8490827708       -1.8404649334
 C         -0.3078285466       -1.0238820120        0.7755364277
 H          0.1144569479       -0.6044912236        1.6990651730
 C         -0.2945208565       -2.5351296805        0.8863232982
 C          0.9138854193       -3.2075118935        1.4614886717
 C         -0.3638952789       -3.1651709847        2.2434527491
 H         -0.9314710761       -4.0762306141        2.3597007705
 H         -0.4186694444       -2.5063667023        3.0986079173
 H          1.7239087275       -2.5740194205        1.7899421368
 H          1.2286705354       -4.1500401300        1.0413140298
 H         -0.8205923486       -3.0349102953        0.0846710835
 O         -2.4785084303       -1.8883926570       -1.0283816070
