  62
        -98.93783248
 C          2.0238093365        0.8561919927        0.5552790176
 C          2.1798799641        0.1468430112       -0.6572960992
 C          2.3820485463       -1.3084273274       -0.5467074692
 C          2.3788394195       -1.8864395810        0.6687365351
 C          2.4850004874       -3.3403206015        1.0809120715
 C          2.9717307866       -4.3997884476        0.0954443916
 C          4.4366765882       -4.2655005336       -0.3181705832
 H          5.0641798401       -4.4941798320        0.5467868346
 H          4.6431118241       -5.0131187778       -1.0870201204
 C          4.8498975822       -2.8909046210       -0.8376969725
 H          4.7461944398       -2.1516218485       -0.0408702186
 H          5.9105680054       -2.9372769594       -1.0986829417
 C          4.0891462361       -2.4023578472       -2.0688655107
 H          4.1440900794       -3.1549949588       -2.8575976344
 H          4.5920534921       -1.5013273512       -2.4295489033
 C          2.6107455423       -2.0428121894       -1.8363553016
 H          2.2972811207       -1.3611970063       -2.6326459898
 H          1.9725504346       -2.9217753936       -1.8921418051
 H          2.8566753322       -5.3646642493        0.5969098106
 H          2.3284276657       -4.4209924122       -0.7792021839
 H          3.1273596163       -3.3523050977        1.9674638935
 H          1.4814033444       -3.6187835756        1.4228175566
 O          2.2090012714       -1.1591286876        1.8134421967
 C          2.0197765171        0.2103045862        1.7879919594
 O          1.8695107216        0.7312687078        2.9142546837
 H         -0.4682037380        0.8720875137        0.4909548598
 C         -0.5708343105        1.7494218426       -0.1317494060
 C          0.4913068056        2.6375958711       -0.2432545869
 C          0.3302497080        3.7669128746       -1.0358422393
 C         -0.8624000874        3.9875975049       -1.7035229333
 C         -1.9111051461        3.0932790631       -1.6008446302
 C         -1.7575910956        1.9557498845       -0.8138431906
 N         -2.7840270150        1.0003200657       -0.7385128605
 S         -2.8176643220       -0.1461299980        0.4897849600
 O         -2.8033742671        0.4961758337        1.7867585075
 O         -1.7912089226       -1.1294285364        0.2462014731
 C         -4.4211473288       -0.8629169712        0.1829634043
 C         -5.5030592586       -0.4676719430        0.9465306782
 C         -6.7489619609       -1.0125174284        0.6771678393
 C         -6.8915257573       -1.9357619740       -0.3476046881
 C         -5.7961406626       -2.3235990424       -1.1051907239
 C         -4.5477293018       -1.7835998368       -0.8402347135
 H         -3.6659561657       -2.0595381211       -1.3950418147
 H         -5.9098869161       -3.0436178650       -1.8994136380
 H         -7.8618304884       -2.3581623211       -0.5555124704
 H         -7.6012664848       -0.7154211058        1.2665873726
 H         -5.3413662938        0.2465799768        1.7378051863
 H         -3.7002799766        1.3688653260       -0.9503779454
 H         -2.8361067474        3.2629066262       -2.1298009435
 H         -0.9754089830        4.8698707239       -2.3150744935
 H          1.1390176752        4.4728008464       -1.1316888312
 C          1.7566981681        2.3485445201        0.5308866691
 H          1.5855602374        2.6431164757        1.5781139906
 C          2.9642339058        3.0966601180        0.0026998725
 C          3.2957528064        4.4648747672        0.5159364319
 C          4.1428078721        3.2924927029        0.9068635798
 H          5.1343463641        3.2061840935        0.4887228622
 H          4.0591436220        2.9117320843        1.9148756967
 H          3.7108717134        5.1867337734       -0.1712078599
 H          2.6456895372        4.8891890425        1.2663682908
 H          3.1631763785        2.8750074557       -1.0394055435
 O          2.1431949570        0.6996032103       -1.7883421687
