  62
        -98.94041479
 C          1.8494552001        1.4083066521        0.2525781821
 C          1.6770962290        0.0553271534       -0.1147158860
 C          2.8261347560       -0.8412240438        0.1113839245
 C          3.9596310241       -0.3422877236        0.6392172036
 C          5.2645490552       -1.0122337804        1.0167096682
 C          5.5806359487       -2.4287033745        0.5441934699
 C          5.8113952579       -2.5623541229       -0.9607799041
 H          6.7517801428       -2.0658300271       -1.2130775211
 H          5.9219757116       -3.6227605879       -1.1977044592
 C          4.7235362170       -1.9652370676       -1.8499283550
 H          4.6665760499       -0.8869150625       -1.6872585412
 H          5.0216241278       -2.1171465172       -2.8909691762
 C          3.3315733686       -2.5682752830       -1.6732656397
 H          2.6959263232       -2.1669045220       -2.4673937602
 H          3.3815781269       -3.6512834591       -1.8019007488
 C          2.6427822431       -2.2644371667       -0.3317436716
 H          1.5663913872       -2.4032252506       -0.4703017423
 H          2.9663932023       -2.9544057445        0.4438790605
 H          4.8088935487       -3.1171865660        0.8751527349
 H          6.5055008566       -2.7250761651        1.0464497864
 H          6.0557184467       -0.3365755435        0.6762876366
 H          5.2986913014       -0.9968409148        2.1116697617
 O          4.0742614108        0.9745430207        0.9849773213
 C          3.0414445361        1.8755432810        0.8024576506
 O          3.3008528975        3.0397072501        1.1678674175
 H         -1.8625654377        1.8867445095       -0.8477583270
 C         -1.7312452229        1.7360194750        0.2101415073
 C         -0.5011199614        1.9431858558        0.8129016646
 C         -0.3847310325        1.7258882949        2.1844960688
 C         -1.4686497432        1.3058326981        2.9296812686
 C         -2.6914720291        1.0811783687        2.3201941856
 C         -2.8189704740        1.2957811330        0.9542107197
 N         -4.0528450193        1.0928758004        0.3053917036
 S         -4.1402483404       -0.0120776639       -0.9520867071
 O         -3.2720423318        0.3939911805       -2.0250562743
 O         -5.5504053822       -0.0940162458       -1.2677651332
 C         -3.6078589725       -1.5523988138       -0.2257630831
 C         -4.5761320054       -2.4351961452        0.2140806470
 C         -4.1848523947       -3.6037255816        0.8461401063
 C         -2.8360694708       -3.8633574941        1.0381848852
 C         -1.8789527204       -2.9644169229        0.5949269227
 C         -2.2609657051       -1.7944028021       -0.0445438889
 H         -1.5253186380       -1.0886487929       -0.3974069335
 H         -0.8279823314       -3.1575275120        0.7426955676
 H         -2.5281868674       -4.7703503225        1.5344479246
 H         -4.9290526320       -4.3045208436        1.1889361542
 H         -5.6121658682       -2.1920471141        0.0409955910
 H         -4.8197046749        0.9234752395        0.9419288815
 H         -3.5397310642        0.7466998380        2.8982013138
 H         -1.3613563799        1.1448178187        3.9916995307
 H          0.5744179514        1.8932272979        2.6563765385
 C          0.7186762895        2.4012506368        0.0511902609
 H          1.0631315369        3.3464899894        0.4956669813
 C          0.4674584584        2.6235042878       -1.4252172997
 C         -0.1337700826        3.9123498212       -1.8961417607
 C          1.3107275690        3.6164405780       -2.1643543014
 H          1.6124421098        3.3863904768       -3.1753029738
 H          2.0579785889        4.1523161792       -1.5967625407
 H         -0.8276506216        3.8837518876       -2.7229240357
 H         -0.3685889901        4.6563262256       -1.1498337963
 H          0.1938578134        1.7146557581       -1.9496496577
 O          0.6087664874       -0.3960675360       -0.6030129465
