  62
        -98.93835813
 C          1.7900005812        0.0183449559        0.1265270241
 C          2.9015914489        0.8979994105        0.1183147429
 C          4.1493196185        0.3392764930       -0.4272002955
 C          4.1736434088       -0.9111220892       -0.9196021395
 C          5.3608411923       -1.6011950590       -1.5348919538
 C          6.3058646868       -2.2482896063       -0.5131595554
 C          7.1535102233       -1.2696093845        0.3006566125
 H          7.9176333965       -1.8572142023        0.8135251251
 H          7.6682578852       -0.5866919623       -0.3759140311
 C          6.3657472520       -0.4662181154        1.3449501400
 H          6.9082211819       -0.4708798849        2.2931276225
 H          5.4025835386       -0.9492232743        1.5253135167
 C          6.1229480710        0.9955615253        0.9690356336
 H          7.0776537506        1.5235834689        0.9155761392
 H          5.5262572966        1.4585186417        1.7592097841
 C          5.3814269605        1.1907160921       -0.3597972238
 H          5.0675886876        2.2353202035       -0.4264965320
 H          6.0439526165        0.9699301099       -1.1963863378
 H          5.7152921351       -2.8694433655        0.1642148876
 H          6.9802297889       -2.9071924231       -1.0650062596
 H          4.9624147641       -2.3865239226       -2.1808261787
 H          5.9178296402       -0.8943008540       -2.1505005154
 O          3.0738194527       -1.7108643716       -0.9306355948
 C          1.8744624970       -1.2767797850       -0.3929409947
 O          0.9617318785       -2.1267084559       -0.4326294141
 O          2.8787899213        2.0853344826        0.5293736848
 C          0.4286036118        0.3969264029        0.6840801518
 C         -0.4403085437        1.0627272654       -0.3513787162
 C          0.0481264181        2.0615749890       -1.1869837676
 C         -0.7844274538        2.6701517385       -2.1085279327
 C         -2.1195499996        2.3165172107       -2.1956598195
 C         -2.6180030312        1.3218208320       -1.3631939808
 C         -1.7710748755        0.6888543942       -0.4644754253
 H         -2.1573570346       -0.1015984428        0.1602331752
 N         -3.9648389668        0.9380078901       -1.4175258479
 S         -4.7792633834        0.5985608008        0.0069401570
 O         -6.1736153880        0.8206895041       -0.3092998735
 O         -4.2463924011        1.3583533096        1.1127374346
 C         -4.5154229265       -1.1422951348        0.2628934873
 C         -4.8385514413       -2.0094343190       -0.7618937412
 C         -4.6520030302       -3.3688371111       -0.5714612779
 C         -4.1505521230       -3.8356370968        0.6342867361
 C         -3.8345450258       -2.9523982950        1.6548092328
 C         -4.0188193620       -1.5912254504        1.4702908296
 H         -3.7795268232       -0.8699751451        2.2363883293
 H         -3.4423953740       -3.3168329209        2.5908087697
 H         -4.0033597413       -4.8941358657        0.7800983923
 H         -4.8952542753       -4.0600597366       -1.3622711463
 H         -5.2283030958       -1.6090876279       -1.6828744900
 H         -4.5335165786        1.4664984646       -2.0629965781
 H         -2.7717652533        2.8061016903       -2.9029817695
 H         -0.3935406454        3.4416701480       -2.7548944897
 H          1.0803369027        2.3641875973       -1.0991522510
 H         -0.0519455606       -0.5604858777        0.9428824910
 C          0.5129705525        1.2127683196        1.9678556368
 C          0.2192148460        2.6773595126        2.0413193094
 C         -0.7369283323        1.6949836934        2.6444767082
 H         -0.7969201144        1.6277360541        3.7206766389
 H         -1.6822437572        1.5437139762        2.1423579477
 H          0.8339952076        3.2794991275        2.6927954973
 H         -0.0752633198        3.1839721740        1.1358120734
 H          1.3044851816        0.8524352095        2.6180522093
