  62
        -98.93837718
 C         -1.7645533244       -0.1806000987       -0.9095797437
 C         -2.9319461401        0.6180540490       -1.0032967793
 C         -4.1961772447       -0.0657295786       -0.6862305966
 C         -4.1974714972       -1.3673653598       -0.3509455718
 C         -5.4067723862       -2.1989280709       -0.0190927688
 C         -5.8640074821       -2.0787513133        1.4410688593
 C         -6.5340580601       -0.7533716634        1.8056052934
 H         -7.3349815128       -0.5450761671        1.0954616235
 H         -6.9950571775       -0.8866787693        2.7863627969
 C         -5.5760130538        0.4443936392        1.8697899684
 H         -5.7742802694        1.0209701257        2.7762141058
 H         -4.5467020754        0.0846754146        1.9388436697
 C         -5.6857510364        1.4074414957        0.6876168191
 H         -6.6735156104        1.8737972281        0.6853669041
 H         -4.9416809959        2.1973204424        0.8184310364
 C         -5.4496197757        0.7567846538       -0.6817571683
 H         -6.3076100908        0.1456729687       -0.9609599892
 H         -5.3285808821        1.5514542611       -1.4220816389
 H         -6.5776284120       -2.8848892350        1.6265772808
 H         -5.0015165768       -2.2420598094        2.0913910663
 H         -6.2295740760       -1.9315543328       -0.6826760037
 H         -5.1301410016       -3.2382637142       -0.2088604159
 O         -3.0567170493       -2.1050768625       -0.2914819982
 C         -1.8242836802       -1.5293500404       -0.5465574172
 O         -0.8620430202       -2.3156387380       -0.4324032649
 O         -2.9455328232        1.8318408491       -1.3287179438
 C         -0.3666890438        0.3477872672       -1.1814368848
 C          0.2489751011        0.9655478671        0.0474318317
 C         -0.4563924175        1.8495199451        0.8571921656
 C          0.1491575737        2.4191115822        1.9625047338
 C          1.4704203719        2.1406767698        2.2659172975
 C          2.1842193355        1.2594776105        1.4626735174
 C          1.5625447265        0.6639811136        0.3742826774
 H          2.1133940550       -0.0391109036       -0.2307156443
 N          3.5230777302        0.9518056929        1.7369128090
 S          4.6058167787        0.7554267808        0.4740407913
 O          5.8996017734        1.0326167253        1.0594843273
 O          4.2359948147        1.5579635078       -0.6674387014
 C          4.5094045480       -0.9767603896        0.0779504101
 C          4.2356363279       -1.3731752950       -1.2157848894
 C          4.1749131590       -2.7276000227       -1.5033319271
 C          4.3903143346       -3.6565039057       -0.4973286103
 C          4.6688109771       -3.2420304607        0.7964462063
 C          4.7299463815       -1.8896464771        1.0901717503
 H          4.9466172119       -1.5288900732        2.0818232062
 H          4.8351503843       -3.9687174869        1.5753030752
 H          4.3393010595       -4.7097381063       -0.7241038934
 H          3.9561798544       -3.0514275971       -2.5083277679
 H          4.0693801172       -0.6185533473       -1.9690294250
 H          3.9280990525        1.4546934063        2.5127243077
 H          1.9461935087        2.6009401359        3.1186272947
 H         -0.4090712281        3.1013048687        2.5861084680
 H         -1.4766244428        2.0953177168        0.6052766116
 H          0.2324293151       -0.5425688647       -1.4317915046
 C         -0.2991756435        1.2801810993       -2.3843019576
 C         -0.1101002722        2.7600873961       -2.2786704511
 C          1.0064088562        1.9012143443       -2.7873835383
 H          1.2527659418        1.9435834029       -3.8379929990
 H          1.8618183134        1.7573996597       -2.1420836583
 H         -0.6502310094        3.3845009710       -2.9738601700
 H         -0.0116825749        3.1930754873       -1.2957349966
 H         -0.9400626275        0.9378983466       -3.1910758049
