  62
        -98.93826259
 C         -1.6141415181       -1.6467259273        0.0935836854
 C         -1.4653172094       -0.3017619965       -0.3230260127
 C         -2.5330704501        0.6211514067        0.0962886611
 C         -3.5469237997        0.1589942958        0.8497994860
 C         -4.7468735001        0.9549715765        1.2783776523
 C         -5.7338407036        1.0916593133        0.1011447507
 C         -5.9172917089        2.5220078261       -0.4070499817
 H         -6.4552985160        2.4644537373       -1.3557878692
 H         -6.5487471964        3.0697361090        0.2957604867
 C         -4.6320448431        3.3302700467       -0.6103343926
 H         -4.2839026233        3.7118478854        0.3505576979
 H         -4.8978999449        4.2010752237       -1.2133989985
 C         -3.4746205798        2.5914076266       -1.2945583252
 H         -2.9777232532        3.2909615637       -1.9695879387
 H         -3.8512300148        1.7726612626       -1.9079672976
 C         -2.3987078233        2.0559331736       -0.3310657491
 H         -1.4255086948        2.1056314338       -0.8278514604
 H         -2.3525736617        2.6948551522        0.5544974754
 H         -6.7107296944        0.7075163216        0.3988565643
 H         -5.3832444760        0.4563184867       -0.7149654670
 H         -4.4329914713        1.9350117557        1.6305066102
 H         -5.2142415432        0.4196640929        2.1051046699
 O         -3.6382746979       -1.1355074899        1.2527518778
 C         -2.6799314668       -2.0660846692        0.8910434976
 O         -2.8832075624       -3.2142198123        1.3344936927
 O         -0.4995186976        0.1138641782       -1.0145742483
 C         -0.5765052731       -2.6916797192       -0.2845095766
 C          0.7407352713       -2.2820394535        0.3252266042
 C          0.9070416060       -2.4036904745        1.7021233212
 C          2.0698804167       -1.9755882367        2.3139421720
 C          3.0864819523       -1.4036941826        1.5679462630
 C          2.9233617803       -1.2655193550        0.1962906861
 C          1.7635539634       -1.7185593471       -0.4196077153
 H          1.6526008397       -1.6018758792       -1.4855398869
 N          3.9431888116       -0.6737031449       -0.5744386930
 S          4.4984701784        0.8448710961       -0.1431761411
 O          5.2995177665        1.2821882943       -1.2641544865
 O          5.1779092685        0.7541452519        1.1251828621
 C          3.0575203301        1.8830949140        0.0137473117
 C          2.3729537906        1.9177266406        1.2115577066
 C          1.2460631777        2.7167316099        1.3134395959
 C          0.8282048004        3.4658623540        0.2251151543
 C          1.5227356812        3.4141865890       -0.9729667656
 C          2.6453250533        2.6113379890       -1.0838024309
 H          3.2185883324        2.5487607690       -1.9949176760
 H          1.1902897537        3.9931077455       -1.8197809573
 H         -0.0439747196        4.0946293743        0.3111139575
 H          0.6972713526        2.7501630618        2.2412836075
 H          2.7325409815        1.3314192261        2.0412322949
 H          3.7445120339       -0.6856600563       -1.5650095777
 H          3.9948842191       -1.0516888984        2.0296984516
 H          2.1872557845       -2.0838965458        3.3818129492
 H          0.1041891817       -2.8322031746        2.2868410847
 H         -0.9001457055       -3.6271985612        0.1909105630
 C         -0.5306571272       -2.8968157725       -1.7839035015
 C          0.1188683919       -4.1262628151       -2.3423533003
 C         -1.3709353062       -3.9738481346       -2.3982718865
 H         -1.8349145885       -3.7831724655       -3.3544549292
 H         -1.9738936881       -4.5760487990       -1.7342776962
 H          0.6780119725       -4.0446203684       -3.2620849217
 H          0.5300074087       -4.8349395802       -1.6394415789
 H         -0.4329320612       -1.9713575973       -2.3385732838
