  62
        -98.93508764
 C         -2.4140433003       -1.0626605804       -0.4716922210
 C         -3.2571481304       -0.4056793907        0.4598493591
 C         -3.6573361103        0.9816318694        0.1614104995
 C         -3.2183260402        1.5454984198       -0.9788305803
 C         -3.4415814701        2.9489664299       -1.4749947399
 C         -2.5587823301        3.9728768197       -0.7437087095
 C         -2.5002225802        3.8028915992        0.7722504404
 H         -2.1171654803        2.8070316192        1.0061741202
 H         -1.7713851003        4.5212058291        1.1576620807
 C         -3.8189737403        4.0327018291        1.5074745104
 H         -4.1719737203        5.0448518991        1.2978410006
 H         -3.6053471604        3.9701415087        2.5775566904
 C         -4.9477640903        3.0487411992        1.1909950100
 H         -5.4183651602        3.2836095195        0.2401511400
 H         -5.7159609704        3.1796217490        1.9586088700
 C         -4.5426160704        1.5786092092        1.2286073696
 H         -4.0463789504        1.3674677489        2.1828466796
 H         -5.4520403704        0.9657236392        1.2352925693
 H         -2.9166330601        4.9747104498       -0.9873205193
 H         -1.5388466801        3.8740110897       -1.1247046395
 H         -4.4913803401        3.2141828199       -1.3948688299
 H         -3.1745879800        2.9539732102       -2.5340912799
 O         -2.4235441401        0.8725454200       -1.8561463704
 C         -1.9788156602       -0.4158775201       -1.6273498008
 O         -1.2238950201       -0.8440886899       -2.5257500208
 O         -3.6634379005       -0.9593799309        1.5174434389
 C         -1.9693849404       -2.4701964705       -0.1072604114
 C         -0.6260597304       -2.4151751708        0.5816610988
 C         -0.4609777705       -2.8770797312        1.8817065487
 C          0.7607217394       -2.7612891814        2.5228347088
 C          1.8384861195       -2.1727966912        1.8855922890
 C          1.6811608696       -1.7084933508        0.5872866792
 C          0.4641746496       -1.8452069906       -0.0607456810
 H          0.3516618997       -1.4719069503       -1.0685079809
 N          2.7692113097       -1.0602986207       -0.0556120606
 S          2.9930146797        0.5320791191        0.4799560099
 O          2.9646431096        0.5379389587        1.9201710099
 O          2.0572821898        1.4168841694       -0.1847024699
 C          4.6484804897        0.8543975793       -0.0948097998
 C          4.8392344599        1.5452663696       -1.2752908796
 C          6.1328342999        1.7579924697       -1.7258595095
 C          7.2066095598        1.2750188694       -0.9936598095
 C          6.9985035197        0.5819811191        0.1897239603
 C          5.7079888997        0.3668417890        0.6455394401
 H          5.4974612396       -0.1585106412        1.5621006699
 H          7.8361614996        0.2095456589        0.7569603002
 H          8.2118858799        1.4419054295       -1.3470027894
 H          6.2967156800        2.2984005799       -2.6443552893
 H          3.9747481099        1.9092890698       -1.8075352496
 H          2.6084762398       -1.0086385504       -1.0547839906
 H          2.7849138394       -2.0461770214        2.3841291792
 H          0.8707831793       -3.1219230517        3.5342503187
 H         -1.3062734306       -3.3066705913        2.3993043685
 H         -2.7059991004       -2.8261644807        0.6256047185
 C         -1.9482768303       -3.4345671002       -1.2757138116
 C         -2.0344902704       -4.9054721803       -1.0039478121
 C         -3.1943265803       -4.1887502201       -1.6259760820
 H         -3.4134954602       -4.3620040197       -2.6687157920
 H         -4.0708861803       -4.0130970502       -1.0194743520
 H         -1.4546586803       -5.5760611501       -1.6190560322
 H         -2.1262018505       -5.2193793206        0.0246970678
 H         -1.3197255302       -3.1074806600       -2.0934256215
