  62
        -98.94051187
 C         -2.6411082005       -1.2902332902       -0.2436326718
 C         -2.3383724026       -0.0977627654       -0.9440404546
 C         -3.4417927059        0.8659867767       -1.0709601146
 C         -4.6445812720        0.5670056463       -0.5473787290
 C         -5.8367145480        1.4784995951       -0.5578373468
 C         -5.8802866620        2.3471360070        0.7070411207
 C         -4.5568256110        3.0441283257        1.0234311426
 H         -4.7148797292        3.6530177937        1.9163148089
 H         -3.8067424778        2.2914439272        1.2784936879
 C         -4.0187296740        3.9291618968       -0.1095374168
 H         -3.6791922257        4.8753195325        0.3171471888
 H         -4.8202951413        4.1593969279       -0.8123738020
 C         -2.8324689432        3.3347513060       -0.8713968077
 H         -2.0617189651        3.0177994567       -0.1631603583
 H         -2.3985645330        4.1233548125       -1.4922009095
 C         -3.1559967639        2.1522485261       -1.7935269253
 H         -3.9838292424        2.4168273296       -2.4544960714
 H         -2.2714624259        1.9603223777       -2.4078834321
 H         -6.6668099674        3.0941802002        0.5863968032
 H         -6.1426157245        1.7108634304        1.5554186196
 H         -5.7982451730        2.1092645370       -1.4436350033
 H         -6.7382895734        0.8650078618       -0.5975022999
 O         -4.9005252154       -0.5960380999        0.1042113348
 C         -3.9058640918       -1.5408905770        0.2902040811
 O         -4.2657314918       -2.5474022895        0.9334706568
 O         -1.2102830170        0.1522408981       -1.4448554507
 C         -1.5670233336       -2.3413581490       -0.0175227394
 C         -0.4634972339       -1.7278341185        0.8099976523
 C         -0.7598160964       -1.3222756149        2.1092727778
 C          0.1997404463       -0.7153633032        2.8956495640
 C          1.4760327279       -0.4979092793        2.4047731631
 C          1.7797587132       -0.8927559747        1.1099102530
 C          0.8136091829       -1.5099280189        0.3224662955
 H          1.0609276341       -1.8019917189       -0.6857691110
 N          3.0776403417       -0.6958717883        0.6025548355
 S          3.8565129100        0.7579219487        0.9683414240
 O          4.3957172284        0.6609661963        2.3024593393
 O          2.9775631142        1.8796183027        0.7245150151
 C          5.1846482269        0.7312876534       -0.2193539630
 C          6.3622470972        0.0863233498        0.1076030767
 C          7.3838694525        0.0433033379       -0.8277728352
 C          7.2116305708        0.6416474637       -2.0670945113
 C          6.0242318472        1.2862711554       -2.3803534008
 C          4.9978372676        1.3319387255       -1.4500274118
 H          4.0614243737        1.8295252876       -1.6477911125
 H          5.8937617715        1.7527903681       -3.3435792501
 H          8.0083271038        0.6083049148       -2.7933565210
 H          8.3093620141       -0.4547033549       -0.5877493374
 H          6.4532635336       -0.3557196165        1.0858985620
 H          3.1228065376       -0.8826203970       -0.3903114399
 H          2.2309305300       -0.0144337252        3.0034991129
 H         -0.0453590578       -0.4037200007        3.9003047037
 H         -1.7603938035       -1.4826506936        2.4888548575
 H         -2.0394455406       -3.1325182904        0.5810980469
 C         -1.1057961097       -2.9345180602       -1.3314747284
 C         -0.4172733205       -4.2653726445       -1.3452075285
 C         -1.8143188095       -4.1384567624       -1.8722197624
 H         -1.9731701540       -4.2068015526       -2.9379678262
 H         -2.6245506352       -4.5442335533       -1.2840987834
 H          0.3833842276       -4.4264047200       -2.0510039521
 H         -0.2761655049       -4.7621992377       -0.3973352765
 H         -0.7875459606       -2.1840936129       -2.0453726269
