  62
        -98.94566622
 C         -1.1493334855       -1.4589022421        0.7334681458
 C         -2.0147242853       -1.4016130335       -0.3852328023
 C         -2.9887790173       -0.3009450195       -0.3833357782
 C         -2.9898275911        0.5791191385        0.6343142759
 C         -3.8973251907        1.7704685252        0.7317002291
 C         -3.2610253407        3.0155709596        0.0990258202
 C         -2.6745690335        2.7774216747       -1.2919026571
 H         -2.2781475545        3.7317109232       -1.6439678509
 H         -1.8297309396        2.0891649179       -1.2105938594
 C         -3.6772037933        2.2353173655       -2.3200703868
 H         -3.5489312362        2.7818813338       -3.2567245373
 H         -4.6960814881        2.4174611089       -1.9759214982
 C         -3.5128264604        0.7501159457       -2.6465749249
 H         -2.4702608864        0.5419822679       -2.9009128474
 H         -4.1158476686        0.5272171809       -3.5309836658
 C         -3.9416287005       -0.2246228057       -1.5428183459
 H         -4.9482867722        0.0247349609       -1.2011490042
 H         -3.9645254312       -1.2283246146       -1.9773492741
 H         -4.0179658716        3.8001796100        0.0473729577
 H         -2.4549731732        3.3559192002        0.7503303038
 H         -4.8397767780        1.5395913416        0.2385432511
 H         -4.0906731150        1.9688703441        1.7871830299
 O         -2.1288614733        0.5025366183        1.6818512030
 C         -1.1878160223       -0.5113996999        1.7562375586
 O         -0.4558583414       -0.4622758557        2.7653685997
 H          1.2691713466       -0.3360988113        0.2823601170
 C          1.4888244726       -1.0997011681       -0.4504439651
 C          0.8781645446       -2.3431979960       -0.3365935745
 C          1.1689871807       -3.3166144692       -1.2820131269
 C          2.0396557304       -3.0391591924       -2.3222520769
 C          2.6520845492       -1.8041179015       -2.4262072630
 C          2.3772856318       -0.8262387694       -1.4760955038
 N          2.9743813244        0.4425365528       -1.5423900188
 S          3.5300757013        1.1529337491       -0.1293397567
 O          4.5575217381        2.0725560513       -0.5727033874
 O          3.9437171791        0.1574696197        0.8315628822
 C          2.1630178651        2.1056062149        0.4948246037
 C          1.7172491905        1.9003683319        1.7846782970
 C          0.7031204722        2.7039154449        2.2807624322
 C          0.1613498328        3.6987739187        1.4829658815
 C          0.6116203842        3.8857455040        0.1841353206
 C          1.6232632065        3.0839056924       -0.3174744961
 H          2.0091672976        3.2062512326       -1.3158396007
 H          0.1799054012        4.6562922235       -0.4341406949
 H         -0.6120122804        4.3369207917        1.8818857924
 H          0.3392367797        2.5374577403        3.2819439259
 H          2.1573204926        1.1134546322        2.3770918201
 H          3.6337764524        0.5600979457       -2.2982971837
 H          3.3358321807       -1.5932009489       -3.2345998194
 H          2.2497183787       -3.7996956037       -3.0590705992
 H          0.7066957031       -4.2872990770       -1.2131414999
 C         -0.0828623280       -2.5377717207        0.8116155949
 H          0.4699386105       -2.3548717281        1.7448789574
 C         -0.7026505176       -3.9166926763        0.8737350929
 C          0.0627838282       -5.0519577395        1.4822062181
 C         -1.1123331494       -4.4672128189        2.2052317650
 H         -2.0216853201       -5.0459737188        2.2663418340
 H         -0.9260842977       -3.8542199717        3.0753578195
 H          1.0501663587       -4.8398878021        1.8644694047
 H         -0.0403732045       -6.0357578624        1.0500089998
 H         -1.3460238682       -4.1263862735        0.0276099387
 O         -1.9835430304       -2.2262085713       -1.3355308592
