  62
        -98.94191615
 C         -1.2919028895       -1.3768999257        0.7303006535
 C         -1.8637556792       -1.1119190844       -0.5387776231
 C         -2.8031604029        0.0197019730       -0.5940325433
 C         -3.0146440076        0.7614830706        0.5072753703
 C         -3.9303016257        1.9483885628        0.5799286375
 C         -3.1908512374        3.2555397485        0.2657749068
 C         -2.3403806377        3.1972603367       -1.0027782530
 H         -1.8950084448        4.1840744403       -1.1407705711
 H         -1.5195583721        2.4924396266       -0.8507692592
 C         -3.1136966900        2.8098780023       -2.2707099031
 H         -4.1830412803        2.9568984463       -2.1142083248
 H         -2.8106633748        3.4748256227       -3.0820187270
 C         -2.8653246169        1.3797856693       -2.7530856947
 H         -1.7900357139        1.1933366158       -2.8147536135
 H         -3.2719814944        1.2859561413       -3.7636484909
 C         -3.4976905755        0.2709789147       -1.9029318102
 H         -3.4207472772       -0.6631922075       -2.4671096403
 H         -4.5558984468        0.4883057185       -1.7421419572
 H         -2.5357771187        3.4883126565        1.1072677070
 H         -3.9292700269        4.0542745291        0.1756175476
 H         -4.7508262330        1.8051714575       -0.1208429717
 H         -4.3364921311        2.0051288695        1.5914252211
 O         -2.3808659221        0.5289023339        1.6857547256
 C         -1.5071812129       -0.5369172498        1.8253781987
 O         -0.9873080509       -0.6253264851        2.9562755423
 O         -1.6236967096       -1.7826193214       -1.5749070181
 C         -0.3232515021       -2.5282073141        0.9390454204
 C          0.7283368628       -2.5047404013       -0.1427778460
 C          0.9651544736       -3.5469035122       -1.0279646870
 C          1.9578867080       -3.4328334683       -1.9859474139
 C          2.7451684156       -2.2988609781       -2.0639207572
 C          2.5161982869       -1.2495749211       -1.1801564800
 C          1.5056218211       -1.3572484683       -0.2409571746
 H          1.3185018767       -0.5382290816        0.4378417390
 N          3.2857003844       -0.0774655936       -1.2288878491
 S          3.7158367018        0.7068908873        0.1860219925
 O          4.9214614962        1.4303952361       -0.1592995472
 O          3.8220012948       -0.2135061549        1.2932743834
 C          2.4161434112        1.8904791216        0.4688552904
 C          1.6239961068        1.8006230164        1.5956342601
 C          0.6486134128        2.7621278967        1.8096174200
 C          0.4911012134        3.7979164036        0.9025110450
 C          1.2919970344        3.8728797921       -0.2274646306
 C          2.2630994626        2.9110734367       -0.4495445332
 H          2.9136159373        2.9401619813       -1.3077304363
 H          1.1617864841        4.6780298056       -0.9323099792
 H         -0.2585026523        4.5530185351        1.0792511345
 H          0.0178428289        2.6868056595        2.6818332340
 H          1.7732723786        0.9858816366        2.2883204275
 H          4.0426682189       -0.0917719963       -1.8965985554
 H          3.5258096940       -2.2188183666       -2.8052973889
 H          2.1265661960       -4.2439952853       -2.6781428133
 H          0.3585878529       -4.4364991411       -0.9845688177
 H          0.1864537955       -2.3003441507        1.8908607576
 C         -0.9811338432       -3.8871553659        1.1225443109
 C         -2.3533694869       -4.0031992956        1.7151411846
 C         -2.1249820292       -4.3590055784        0.2783155170
 H         -2.1560963118       -5.4026594100        0.0006908621
 H         -2.4925661502       -3.6928561533       -0.4850357622
 H         -2.5421068762       -4.7975470509        2.4216992106
 H         -2.8789029929       -3.0857709413        1.9385361099
 H         -0.2620562794       -4.6404530704        1.4310449225
