  62
        -98.93695769
 C         -2.4422157075        0.9415744520       -0.5213937634
 C         -2.5722091888       -0.1158970573        0.4078165323
 C         -3.7104613569       -1.0324113573        0.2043419082
 C         -4.5427992809       -0.8376467960       -0.8352117684
 C         -5.7471057008       -1.6240179772       -1.3098062614
 C         -6.4177919542       -2.6521872327       -0.4023704583
 C         -7.1090393016       -2.0660562978        0.8280602586
 H         -7.9810944805       -1.4955722339        0.4984641226
 H         -7.4670407332       -2.8934305264        1.4447033258
 C         -6.2516436644       -1.1405855226        1.6877834743
 H         -5.9766155986       -0.2546893982        1.1116655522
 H         -6.8652274454       -0.8001884932        2.5264357343
 C         -4.9850123353       -1.7702605967        2.2645372165
 H         -4.5624735150       -1.0602639216        2.9806809345
 H         -5.2422788219       -2.6805803095        2.8094730811
 C         -3.8850175794       -2.1042441344        1.2413769126
 H         -2.9334647295       -2.1692370729        1.7770586802
 H         -4.0609224670       -3.0686539400        0.7711200686
 H         -5.7062386606       -3.4186938440       -0.1099832226
 H         -7.1839639923       -3.1457874504       -1.0064774747
 H         -6.4879975593       -0.8769234838       -1.6116804296
 H         -5.4284951325       -2.1294948889       -2.2281655685
 O         -4.3564347743        0.1826914764       -1.7239889280
 C         -3.3219369839        1.0889201054       -1.5934625854
 O         -3.2919305024        1.9662159996       -2.4798629038
 H          0.6930633393        1.2956539409        1.3759635028
 C          0.9126665176        0.9975321651        0.3628709063
 C          0.0010354432        1.2576855333       -0.6470155439
 C          0.3072759451        0.8481225130       -1.9424056183
 C          1.4947015831        0.1970981230       -2.2155777560
 C          2.4009361492       -0.0654567039       -1.2022143711
 C          2.1037345138        0.3347351010        0.0925498346
 N          3.0158894404        0.0576986946        1.1263238961
 S          4.6032753115        0.5671625381        0.9320809273
 O          5.1252154367        0.7059107830        2.2742600041
 O          4.6815218556        1.7378890388        0.0888693934
 C          5.4072949766       -0.8089184787        0.1380285610
 C          6.0681652055       -0.6203361167       -1.0599488464
 C          6.6975129402       -1.7022626651       -1.6558393084
 C          6.6554490778       -2.9466627010       -1.0459832310
 C          5.9895140459       -3.1188587298        0.1585403959
 C          5.3597903510       -2.0410720092        0.7601967482
 H          4.8354376138       -2.1322778600        1.6968239252
 H          5.9589542403       -4.0882198613        0.6295401567
 H          7.1449448738       -3.7873535048       -1.5118504732
 H          7.2162772061       -1.5703383440       -2.5917902915
 H          6.0695825160        0.3642334602       -1.4998989318
 H          2.6718460405        0.2997647765        2.0443650107
 H          3.3282462999       -0.5753306365       -1.4068166934
 H          1.7184804126       -0.1104433671       -3.2258341121
 H         -0.4046558414        1.0494638250       -2.7315846425
 C         -1.3154132536        1.9543820678       -0.4022620949
 H         -1.4705960129        2.6713949331       -1.2203745812
 C         -1.3826979777        2.6994398549        0.9141938324
 C         -0.6236421849        3.9814252119        1.0748328505
 C         -2.1191380032        4.0018766054        0.9799034507
 H         -2.6891493092        4.2271773088        1.8688051971
 H         -2.5695771129        4.3674726758        0.0685708190
 H         -0.1657263296        4.1968482964        2.0285887222
 H         -0.0548661377        4.3329737301        0.2270181203
 H         -1.4614990175        2.0431583999        1.7725151801
 O         -1.7808603989       -0.2983682029        1.3697814385
