  62
        -98.94469890
 C          2.0042607584        1.3532469550        0.3286080588
 C          2.6759941306        0.7943284875       -0.7855588976
 C          3.8493231100       -0.0353741813       -0.4736142153
 C          4.2085521054       -0.2167615545        0.8102245185
 C          5.3461579856       -1.0814433842        1.2690677895
 C          4.8749471688       -2.5152882440        1.5498495745
 C          4.0355165658       -3.1214098882        0.4248396146
 H          3.0945862522       -2.5717442352        0.3433074535
 H          3.7844205381       -4.1427244974        0.7198408107
 C          4.7286429321       -3.1405659533       -0.9447654302
 H          4.5694723185       -4.1187843817       -1.4033524710
 H          5.8043278443       -3.0138675800       -0.8170552236
 C          4.2089193501       -2.0953025853       -1.9337341731
 H          3.1190727493       -2.1576078627       -1.9948704532
 H          4.6053545898       -2.3376801219       -2.9233259979
 C          4.5924036819       -0.6413298389       -1.6305808137
 H          4.3265142644       -0.0400010408       -2.5048503083
 H          5.6711527774       -0.5692192245       -1.4780753638
 H          4.2727273935       -2.5102374206        2.4614952967
 H          5.7527882935       -3.1392273381        1.7268536362
 H          5.7533390981       -0.6560798066        2.1878938113
 H          6.1228123322       -1.0858061715        0.5069270537
 O          3.5335391207        0.3311248623        1.8533394418
 C          2.4099373788        1.1137920957        1.6408170269
 O          1.8642908970        1.5262064120        2.6853482120
 O          2.3180367383        0.9763798122       -1.9776304898
 C          0.7756723694        2.2202093249        0.1157951786
 C         -0.3012205385        1.4169317801       -0.5732352515
 C         -0.9895460359        1.8546566181       -1.6961947844
 C         -1.9581055223        1.0553117877       -2.2802592162
 C         -2.2695605447       -0.1841053068       -1.7540267952
 C         -1.6033936147       -0.6212123207       -0.6150997044
 C         -0.6341191531        0.1801027536       -0.0327541571
 H         -0.1131989952       -0.1627544320        0.8533969029
 N         -1.9300826137       -1.8681486754       -0.0561967212
 S         -3.5507950108       -2.2644964585        0.0784817948
 O         -3.6277492773       -3.1625412395        1.2095248925
 O         -4.0261107779       -2.7933832970       -1.1757337873
 C         -4.3858893868       -0.7286833199        0.4372320523
 C         -5.3620119098       -0.2604549246       -0.4184980027
 C         -5.9781831849        0.9481322554       -0.1357796443
 C         -5.6059345929        1.6659205512        0.9899403025
 C         -4.6259422717        1.1803322172        1.8424062701
 C         -4.0086604311       -0.0286597551        1.5662009547
 H         -3.2459397617       -0.4332710034        2.2126363088
 H         -4.3366521880        1.7393162979        2.7179777326
 H         -6.0816154431        2.6093131968        1.2066397238
 H         -6.7421194907        1.3269197692       -0.7953483957
 H         -5.6173016785       -0.8491178696       -1.2845566202
 H         -1.4259388480       -2.0855846929        0.7903997290
 H         -3.0071326064       -0.8249431156       -2.2092133332
 H         -2.4752580933        1.4017238588       -3.1617598840
 H         -0.7601692063        2.8165623171       -2.1233006537
 H          0.4122893669        2.4812683607        1.1204768574
 C          1.1492811342        3.4938218468       -0.6124236790
 C          0.3456307897        4.7415596605       -0.4071246613
 C          1.7220891664        4.6324818500        0.1749054506
 H          2.5184569555        5.2142375875       -0.2644619879
 H          1.8201006959        4.4974232596        1.2425627213
 H          0.1978608942        5.4040153950       -1.2464962305
 H         -0.4945430601        4.6896642390        0.2684845341
 H          1.5668804504        3.3056563096       -1.5945097301
