  62
        -98.93408468
 C         -2.4451121081       -1.1781866971       -0.0024338783
 C         -2.5816194382        0.0615268650       -0.6663185390
 C         -3.9508328795        0.6043020992       -0.7844557255
 C         -4.9754705561       -0.1036034472       -0.2737075061
 C         -6.4342255250        0.2665544340       -0.2363541759
 C         -6.7486456604        1.3197225594        0.8391734338
 C         -5.7517732769        2.4729295568        0.9224703793
 H         -6.0181773200        3.0796972716        1.7919915751
 H         -4.7524409312        2.0718398886        1.1020766631
 C         -5.7175339983        3.3929363421       -0.2954890204
 H         -6.7081031120        3.8290902421       -0.4428249841
 H         -5.0260251491        4.2079040829       -0.0669618588
 C         -5.2721716415        2.7471541991       -1.6089270785
 H         -5.0705710370        3.5560891651       -2.3173023752
 H         -6.0700754898        2.1500957025       -2.0420353151
 C         -3.9900863733        1.9255394821       -1.5140156967
 H         -3.6379500336        1.7106324468       -2.5304160966
 H         -3.2021456304        2.5391455804       -1.0622438145
 H         -7.7496026031        1.7131408378        0.6546734318
 H         -6.7565998522        0.8174785536        1.8095604967
 H         -6.7583750404        0.6029215920       -1.2165742532
 H         -6.9836534388       -0.6470551527        0.0007779514
 O         -4.7936877064       -1.3014463427        0.3541836714
 C         -3.5437117279       -1.8644881872        0.5120048419
 O         -3.5376707524       -2.9551981920        1.1189153703
 H          1.4461444226       -0.8484394485       -0.4992620827
 C          1.0776016059       -0.4694893352        0.4388341662
 C         -0.1673491109       -0.8460895841        0.9148632333
 C         -0.6001111354       -0.3298271935        2.1343882099
 C          0.1908296866        0.5460830523        2.8512842835
 C          1.4347686954        0.9192655884        2.3729400698
 C          1.8751761869        0.4121424085        1.1565625138
 N          3.1172840287        0.8027513899        0.6317076069
 S          4.0102501233       -0.2947267633       -0.2856697313
 O          3.5019971515       -0.3126364802       -1.6338654652
 O          4.0749920964       -1.5714046258        0.3903446885
 C          5.6050017420        0.5034634495       -0.2583864847
 C          5.8129399363        1.5854862358       -1.0932669435
 C          7.0378133741        2.2324315999       -1.0586740151
 C          8.0290074026        1.7894698206       -0.1951293910
 C          7.8066838047        0.7009196913        0.6346209985
 C          6.5829229126        0.0503013534        0.6064793590
 H          6.3670547098       -0.8039300682        1.2278282390
 H          8.5804901940        0.3569692358        1.3018717542
 H          8.9816779100        2.2945709150       -0.1710725234
 H          7.2152155827        3.0774843391       -1.7041916760
 H          5.0163448882        1.8878353021       -1.7531252833
 H          3.6968352290        1.2831019557        1.3062796333
 H          2.0536320753        1.6046371930        2.9319107927
 H         -0.1602089125        0.9384767677        3.7940224298
 H         -1.5713151845       -0.6259154959        2.5087824373
 C         -1.0716155552       -1.7999196588        0.1725543293
 H         -1.2181678354       -2.6895510733        0.8034052973
 C         -0.5187423986       -2.2412746633       -1.1658282682
 C          0.4909144272       -3.3459841853       -1.2337402253
 C         -0.9093763142       -3.5793017480       -1.7140347142
 H         -1.0825383558       -3.6711739203       -2.7757258871
 H         -1.5630250916       -4.1908598875       -1.1089333672
 H          1.2855454776       -3.2721922496       -1.9615006878
 H          0.7949011822       -3.8025498636       -0.3035380709
 H         -0.4221789848       -1.4213945745       -1.8691447047
 O         -1.6065878661        0.7032518655       -1.1395124055
