  62
        -98.94892869
 C          2.2384088248        0.8437091558        0.0780816500
 C          1.5891719605        0.1119195957       -0.9449704892
 C          1.9804342249       -1.2976581554       -1.0753653167
 C          2.8762649527       -1.8140223852       -0.2151481704
 C          3.3716076451       -3.2310008329       -0.2360041191
 C          2.5341539213       -4.1475229728        0.6648539721
 C          1.0262767003       -4.0342923177        0.4396269401
 H          0.5447870914       -4.7692721811        1.0895869972
 H          0.6791783085       -3.0512767331        0.7667877305
 C          0.5772942805       -4.2638989960       -1.0101203657
 H          1.3566092015       -4.7888673422       -1.5649565993
 H         -0.3060951527       -4.9059926502       -1.0009383229
 C          0.1890878173       -2.9831634412       -1.7515853163
 H         -0.4778615967       -2.3953320953       -1.1157689579
 H         -0.3674104168       -3.2617730361       -2.6507474396
 C          1.3558816336       -2.0884063453       -2.1901289971
 H          2.1086726000       -2.6903182873       -2.7046085786
 H          0.9634835510       -1.3506205891       -2.8961769915
 H          2.8521487613       -5.1783465609        0.4943285827
 H          2.7428483575       -3.8960649128        1.7075197965
 H          3.3503773420       -3.5975812954       -1.2607392316
 H          4.4037679791       -3.2349805776        0.1200409110
 O          3.4318706970       -1.0958982588        0.7959116956
 C          3.1173028670        0.2410082334        0.9751425826
 O          3.6786837608        0.7769941893        1.9548326623
 O          0.7405689709        0.6171444242       -1.7253002872
 C          1.9284141383        2.3206635941        0.2638735668
 C          0.4384092924        2.4909641231        0.4222144084
 C         -0.3253373235        3.3901070076       -0.3104254033
 C         -1.7034054312        3.4158888965       -0.1772147229
 C         -2.3483311872        2.5345383337        0.6716820244
 C         -1.5888188175        1.6547048908        1.4301084689
 C         -0.2098761621        1.6563906204        1.3247306857
 H          0.3722712573        0.9531601387        1.9088358860
 N         -2.2610528665        0.6820696207        2.2314527477
 S         -2.2727617428       -0.8012859584        1.4153774705
 O         -3.0163359850       -1.7106515647        2.2625007223
 O         -0.9305632007       -1.2295885059        1.0855703375
 C         -3.2051613745       -0.4149617326       -0.0456190393
 C         -4.5828106358       -0.4913500395        0.0268527505
 C         -5.3325266262       -0.1446221805       -1.0849417147
 C         -4.6934073377        0.2758985657       -2.2420630773
 C         -3.3102357204        0.3492391629       -2.2958470050
 C         -2.5516225978        0.0034214357       -1.1877519312
 H         -1.4734886164        0.0631252473       -1.2044667754
 H         -2.8079727681        0.6804449091       -3.1904723283
 H         -5.2761486761        0.5492578054       -3.1076515150
 H         -6.4085019132       -0.2000163897       -1.0455701805
 H         -5.0301965943       -0.8258638959        0.9484026653
 H         -1.8055540261        0.5342365589        3.1233003109
 H         -3.4228050874        2.5127998233        0.7530031381
 H         -2.2830790045        4.1128141279       -0.7622412983
 H          0.1585378973        4.0578126014       -1.0042990491
 H          2.4196558083        2.6218427721        1.2006678586
 C          2.5128960262        3.1237722680       -0.8793584454
 C          2.9051948160        4.5552873116       -0.6729922997
 C          3.9611117963        3.5038743629       -0.8311897031
 H          4.5320744591        3.4764201750       -1.7470309649
 H          4.5228598730        3.2020892746        0.0411415127
 H          2.7556408819        5.2534357562       -1.4825279746
 H          2.7560488305        4.9780045633        0.3090052117
 H          2.1039367028        2.8356234300       -1.8409150488
