  62
        -98.93682089
 C         -2.2142752774       -1.1222244822       -0.0528418785
 C         -3.2823852448       -0.8696170096        0.8411285204
 C         -4.2356796783        0.1889859713        0.4619797395
 C         -4.0434996288        0.8541958704       -0.6912088641
 C         -4.8653088199        1.9695827739       -1.2861202661
 C         -6.3915520319        1.7949294541       -1.2461255050
 C         -7.0866944641        2.7460737689       -0.2705961206
 H         -6.6010356587        3.7222127617       -0.3318722934
 H         -8.1230977789        2.8773615005       -0.5894502513
 C         -7.1065391067        2.2818557270        1.1847006546
 H         -7.8001298733        1.4444631246        1.2869949163
 H         -7.4986354536        3.1039355878        1.7880408085
 C         -5.7517962374        1.8578880738        1.7558645415
 H         -4.9663285219        2.5348560554        1.4217477443
 H         -5.8065383612        1.9463549166        2.8429884697
 C         -5.3707945720        0.4071214207        1.4252553558
 H         -5.0576869390       -0.1069414054        2.3392312902
 H         -6.2486782555       -0.1351006930        1.0621268645
 H         -6.6398663396        0.7614192877       -1.0097587389
 H         -6.7758885379        1.9986389734       -2.2468746212
 H         -4.5852117243        2.9054733316       -0.7962430524
 H         -4.5269249266        2.0488302920       -2.3218072131
 O         -2.9871969087        0.5918965200       -1.5128701246
 C         -2.0511015434       -0.3868338039       -1.2255893633
 O         -1.1565056802       -0.4991242596       -2.0866002031
 H          0.9617922369       -1.7591306454       -1.2987963455
 C          1.1009579937       -1.3753781150       -0.3006515197
 C          0.1014723285       -1.5365992259        0.6456875928
 C          0.2930178076       -0.9991046505        1.9157422176
 C          1.4581125935       -0.3245736985        2.2278065395
 C          2.4522126267       -0.1611992469        1.2781871824
 C          2.2618544473       -0.6761270577        0.0036312895
 N          3.2578474006       -0.5053280370       -0.9731808110
 S          3.9453774166        1.0151355417       -1.1523207877
 O          3.0370219156        2.0699219958       -0.7649379765
 O          4.4333897651        1.0521612710       -2.5140052883
 C          5.3411929451        0.9721714194       -0.0450448112
 C          5.5233882875        1.9863023987        0.8746084111
 C          6.6230473694        1.9379518222        1.7175208472
 C          7.5170330732        0.8823672487        1.6256577811
 C          7.3214068100       -0.1271332244        0.6948438896
 C          6.2250272893       -0.0840258825       -0.1513692492
 H          6.0382870409       -0.8466683519       -0.8887196328
 H          8.0186896899       -0.9464857522        0.6262270686
 H          8.3711273780        0.8463905825        2.2833302292
 H          6.7763440275        2.7222975408        2.4412861352
 H          4.7985439792        2.7840204693        0.9142912148
 H          3.0015493555       -0.8855618559       -1.8733274042
 H          3.3578199002        0.3749945005        1.5102052652
 H          1.5946868656        0.0823980771        3.2181904245
 H         -0.4925520347       -1.1063472039        2.6506331027
 C         -1.2112993959       -2.2029963604        0.3173416134
 H         -1.6026066547       -2.6575151004        1.2372123243
 C         -1.1069242925       -3.2735450347       -0.7483802125
 C         -0.4392983169       -4.5736067173       -0.4164267376
 C         -1.9237062092       -4.5222188608       -0.6136349205
 H         -2.3422348001       -4.9612496544       -1.5069117310
 H         -2.5591591369       -4.6117790914        0.2550995723
 H         -0.0653670163       -4.6964701591        0.5885972345
 H          0.1638811400       -5.0519653664       -1.1727760370
 H         -0.9775165057       -2.8759395436       -1.7476954933
 O         -3.4364607466       -1.5059730522        1.9179373457
