  62
        -98.93703016
 C         -1.1408007199       -1.2758791148       -0.2047865787
 C         -2.1960377331       -1.0961049607        0.7278549866
 C         -3.0855175312        0.0494034277        0.5014065294
 C         -2.8579503858        0.8664655357       -0.5418365307
 C         -3.6190473232        2.1185837921       -0.8909473151
 C         -5.0924337210        1.9273980614       -1.2993463678
 C         -6.0929185824        2.0811412867       -0.1471096230
 H         -5.6424795342        2.7003170653        0.6295140082
 H         -6.9672777816        2.6237064580       -0.5123162593
 C         -6.6040688983        0.7766605975        0.4718189931
 H         -7.0959737776        1.0245245692        1.4148984766
 H         -7.3587864200        0.3411150522       -0.1870981695
 C         -5.5485355028       -0.2984872896        0.7316022830
 H         -5.2678607778       -0.7729010907       -0.2118967220
 H         -6.0020763032       -1.0793870020        1.3452688961
 C         -4.2648997312        0.2110810676        1.4155048361
 H         -4.3772960177        1.2510618862        1.7177684312
 H         -4.0544263500       -0.3861388777        2.3047148335
 H         -5.3144374234        2.6907675967       -2.0468669364
 H         -5.2130783770        0.9585048915       -1.7833081805
 H         -3.5666533291        2.8091671692       -0.0458946179
 H         -3.0760472837        2.5670365902       -1.7258466966
 O         -1.8346516687        0.6613828448       -1.4138841819
 C         -0.9609295714       -0.4104331227       -1.2821406690
 O         -0.0961708608       -0.4532875354       -2.1790667607
 H          2.0231544458       -1.1289318538       -0.9071629397
 C          2.0673237587       -1.3224055631        0.1530547991
 C          1.0193193644       -1.9718532836        0.7931583551
 C          1.0975161089       -2.1794640196        2.1669216748
 C          2.2039124637       -1.7636273976        2.8835425153
 C          3.2525735423       -1.1313844316        2.2417658868
 C          3.1822425949       -0.9086093067        0.8707380813
 N          4.2528887603       -0.2830146013        0.2095500984
 S          3.9663783660        0.9443601815       -0.8903286284
 O          3.4800975064        0.4034261752       -2.1312174975
 O          5.2283869939        1.6522222867       -0.9595297494
 C          2.7477595375        1.9775399116       -0.0997620658
 C          3.1552112695        2.7463983405        0.9738967334
 C          2.2189446911        3.5191389712        1.6397796615
 C          0.8951076054        3.5063996881        1.2258147398
 C          0.5048145722        2.7333833468        0.1441836765
 C          1.4377738104        1.9585612963       -0.5283105303
 H          1.1652869919        1.3415590830       -1.3702701175
 H         -0.5233571690        2.7200576905       -0.1823702199
 H          0.1628596634        4.1037912179        1.7458077323
 H          2.5201860268        4.1261558023        2.4782306547
 H          4.1956539370        2.7398526112        1.2557123052
 H          5.0196825290       -0.0343984418        0.8185063833
 H          4.1240481589       -0.8137086251        2.7937211842
 H          2.2511973251       -1.9342066237        3.9481305785
 H          0.2724856411       -2.6629670053        2.6693339785
 C         -0.2041686091       -2.4468234865        0.0432502469
 H         -0.7600145797       -3.1129551832        0.7178202419
 C          0.1553429247       -3.2304372588       -1.2013022218
 C          0.6589508995       -4.6333976128       -1.0470131969
 C         -0.7070249464       -4.3849939142       -1.6111066446
 H         -0.8717325396       -4.5551267703       -2.6645758613
 H         -1.5629151730       -4.6152586080       -0.9932086402
 H          1.4367804815       -4.9761694807       -1.7119832927
 H          0.7281887915       -5.0321829202       -0.0461097776
 H          0.5808198992       -2.6284666771       -1.9932802680
 O         -2.3831127396       -1.8608444703        1.7107401568
