  62
        -98.94480003
 C          1.6080920163        1.2890352964       -0.2383819038
 C          1.4066365161       -0.0851413675       -0.5121474952
 C          2.2490065130       -1.0210452342        0.2436758051
 C          3.1039958445       -0.5614556946        1.1730777527
 C          4.0027489992       -1.3954260616        2.0453268993
 C          5.3223649443       -1.8034425464        1.3753239825
 C          5.1997785473       -2.8713433782        0.2874352051
 H          6.2111402228       -3.2163996088        0.0634213560
 H          4.6440057373       -3.7238458659        0.6791663876
 C          4.5463640471       -2.3805093268       -1.0119760402
 H          5.1320865557       -2.7257528436       -1.8668118762
 H          4.5583486610       -1.2884576995       -1.0347585872
 C          3.1108960604       -2.8629971436       -1.2205165395
 H          2.7334274127       -2.4245336677       -2.1474710151
 H          3.1014722276       -3.9494953783       -1.3313863584
 C          2.1492432467       -2.4795222741       -0.0883725992
 H          1.1264184100       -2.6780086802       -0.4176360905
 H          2.3467838287       -3.0830497157        0.7974339430
 H          5.7913470123       -0.9094462457        0.9578051023
 H          5.9789580827       -2.1877305092        2.1593886205
 H          3.4670212418       -2.2861779049        2.3755906393
 H          4.2347056005       -0.7868273784        2.9222479671
 O          3.2389266495        0.7642628885        1.4437862687
 C          2.5109857621        1.7097196185        0.7428682528
 O          2.7570934135        2.8878612630        1.0756202555
 O          0.5766834463       -0.5376543075       -1.3446193690
 C          0.8378001142        2.4107666147       -0.9197994042
 C         -0.4571890065        2.6680214457       -0.1852804649
 C         -0.7556797409        3.9315043605        0.3094792475
 C         -1.9241932018        4.1494685510        1.0175366950
 C         -2.7971386471        3.1070819579        1.2676145922
 C         -2.5074873703        1.8373650553        0.7771576842
 C         -1.3590231732        1.6345680676        0.0279057835
 H         -1.1426013894        0.6521558432       -0.3545523662
 N         -3.3760162072        0.7655608661        1.0271507037
 S         -2.8174815208       -0.7722151777        1.4204751117
 O         -3.6777095784       -1.2033828173        2.5060237614
 O         -1.4014342362       -0.7728030099        1.6932495156
 C         -3.2239844806       -1.7381748601       -0.0203735738
 C         -2.2862187851       -1.9744076141       -1.0041406938
 C         -2.6574820747       -2.7165418934       -2.1159026405
 C         -3.9492087985       -3.2056582396       -2.2266039839
 C         -4.8802548734       -2.9599887089       -1.2283015075
 C         -4.5164933167       -2.2201648618       -0.1158710024
 H         -5.2024999220       -2.0183135358        0.6900272049
 H         -5.8846051886       -3.3424822468       -1.3137496221
 H         -4.2299890980       -3.7822092846       -3.0939882485
 H         -1.9285164239       -2.9031606041       -2.8885044122
 H         -1.2851418473       -1.5830565160       -0.9046612061
 H         -4.1673807843        1.0060544807        1.6066128077
 H         -3.6950365636        3.2692618741        1.8449958023
 H         -2.1472082317        5.1353077686        1.3968972187
 H         -0.0557073486        4.7395169857        0.1549386098
 H          1.4629612669        3.3083158611       -0.8124930047
 C          0.5865316131        2.1786347870       -2.3964145342
 C          0.3711268285        3.3614082729       -3.2900734913
 C          1.6386604406        2.5676602851       -3.3889088406
 H          1.7908067169        1.9365990571       -4.2514308216
 H          2.5479166464        3.0084315123       -3.0057781688
 H         -0.3512099659        3.2780297107       -4.0872804883
 H          0.4231312877        4.3432586091       -2.8443370916
 H          0.0181631874        1.2814981303       -2.6005225451
