  62
        -98.93457857
 C         -2.3009757812       -0.9151020671        0.1749488930
 C         -3.1125129664       -0.2060762698        1.0955335837
 C         -4.0493330873        0.7950629940        0.5514394069
 C         -4.0822035227        0.9875834704       -0.7799333811
 C         -4.9701457164        1.9119211828       -1.5699152933
 C         -6.4077975618        1.3842587043       -1.7017438670
 C         -7.0066950185        0.8221160730       -0.4152176321
 H         -6.3744602838        0.0105999651       -0.0503489258
 H         -7.9789250526        0.3885561082       -0.6640833439
 C         -7.2214466671        1.8404151898        0.7019937038
 H         -7.7391025987        1.3246637119        1.5147746107
 H         -7.8788980089        2.6345941252        0.3413109057
 C         -5.9556886612        2.4797406935        1.2772334349
 H         -6.2374876247        2.9759948687        2.2104608318
 H         -5.5730330739        3.2554456288        0.6193917491
 C         -4.8465873947        1.4926121904        1.6269711159
 H         -5.2578362420        0.6992230138        2.2613479189
 H         -4.1067751887        2.0055152743        2.2533211789
 H         -6.4066264357        0.5838501489       -2.4458028889
 H         -7.0381668829        2.1921264688       -2.0771457019
 H         -4.5346556888        1.9867137441       -2.5689036865
 H         -4.9609519980        2.9047052013       -1.1298498805
 O         -3.2805783619        0.2868054921       -1.6305891858
 C         -2.3734745346       -0.6652882792       -1.1949778341
 O         -1.7171536992       -1.1862194932       -2.1178642783
 O         -3.0670507762       -0.4090931181        2.3387286925
 C         -1.3542168100       -1.9482729481        0.7588943130
 C          0.0176786137       -1.3701724950        0.9955693671
 C          0.6638473264       -1.5346007113        2.2148194003
 C          1.9329921209       -1.0191452031        2.4138525258
 C          2.5810309483       -0.3298030113        1.4047514052
 C          1.9438283464       -0.1594883333        0.1824340785
 C          0.6721728524       -0.6779353586       -0.0140834107
 H          0.1861762220       -0.5539682913       -0.9711892464
 N          2.5905039644        0.5477046886       -0.8482917766
 S          4.1242323786        0.0219070628       -1.2945540154
 O          4.2934405779        0.4503145649       -2.6655300519
 O          4.2919684933       -1.3893410583       -1.0347149080
 C          5.2156841500        0.9688133170       -0.2541212210
 C          6.1200070433        0.3240514080        0.5668337999
 C          6.9637764569        1.0848021177        1.3614354552
 C          6.8890592301        2.4686304184        1.3203544262
 C          5.9771456180        3.1007671788        0.4879441759
 C          5.1318511687        2.3463270732       -0.3097551421
 H          4.4124283207        2.7969293544       -0.9730668800
 H          5.9221166887        4.1770764058        0.4582000515
 H          7.5456097802        3.0584741427        1.9402997853
 H          7.6739301178        0.5954902237        2.0084636506
 H          6.1381241274       -0.7541282578        0.5691191905
 H          2.0118122782        0.6664043719       -1.6681446003
 H          3.5687933251        0.0746804549        1.5535773818
 H          2.4229273462       -1.1539203267        3.3659105032
 H          0.1604269721       -2.0624579384        3.0114357797
 H         -1.7826544538       -2.1913024345        1.7441437218
 C         -1.3131800389       -3.2398837673       -0.0477621002
 C         -0.1294077518       -3.6889017399       -0.8460718583
 C         -0.4841617772       -4.3973562978        0.4248252611
 H         -0.9003402572       -5.3915782052        0.3669702648
 H          0.1566908970       -4.2329887513        1.2779369797
 H         -0.3206875365       -4.1782142340       -1.7891847013
 H          0.7545923923       -3.0696264377       -0.8569300765
 H         -2.2849757836       -3.4804301122       -0.4678050017
