  62
        -98.93723762
 C         -2.4204304939       -1.1024129489       -0.0648727654
 C         -3.5129730388       -0.7600215747        0.7667672936
 C         -4.5123420671        0.1749495291        0.2155111781
 C         -4.3308660071        0.6523322414       -1.0299300457
 C         -5.1807526460        1.6403136906       -1.7840264575
 C         -4.9804827893        3.0855629632       -1.3005332715
 C         -4.9480097282        3.2571708074        0.2157726613
 H         -4.1456439200        2.6430860409        0.6287988899
 H         -4.6980425438        4.3004133850        0.4261426232
 C         -6.2560860926        2.9364746579        0.9350338255
 H         -6.1176223031        3.1930155263        1.9884539821
 H         -7.0485910703        3.5757705903        0.5396477816
 C         -6.7224187479        1.4808941793        0.8596942465
 H         -7.1781029534        1.2629599721       -0.1024728821
 H         -7.5075958177        1.3517541409        1.6104005128
 C         -5.6438129705        0.4498680414        1.1766661434
 H         -6.1273078152       -0.5200465667        1.3452115474
 H         -5.1730881043        0.7051808427        2.1328856869
 H         -5.7751295210        3.7031405190       -1.7225746948
 H         -4.0272240959        3.4445434696       -1.6961167878
 H         -4.8764424741        1.5791417367       -2.8312622296
 H         -6.2266540624        1.3539575015       -1.7263470638
 O         -3.2577375248        0.2997398838       -1.7933245474
 C         -2.2817659354       -0.5718072552       -1.3465775180
 O         -1.3758233263       -0.7879054355       -2.1746497801
 O         -3.6543429906       -1.2153309096        1.9338163933
 C         -1.3719177369       -2.0546655076        0.4855079600
 C         -0.0951467825       -1.2854268025        0.7185812566
 C          0.0438417247       -0.5394320854        1.8859857812
 C          1.1850484257        0.2051389870        2.1163781330
 C          2.2083494749        0.2300983702        1.1844363221
 C          2.0778996260       -0.5061644968        0.0150752580
 C          0.9363463976       -1.2664516499       -0.2070564107
 H          0.8419346194       -1.8230791034       -1.1261640056
 N          3.0974931640       -0.4618397516       -0.9493073972
 S          4.6860689096       -0.6860791610       -0.4676822623
 O          5.3794000807       -1.1528581991       -1.6484467142
 O          4.7715738747       -1.5306427877        0.7014879714
 C          5.2520721200        0.9561986045       -0.0757704641
 C          5.8284423888        1.2116421382        1.1530861847
 C          6.2719816578        2.4951648404        1.4317566024
 C          6.1331550629        3.4947450420        0.4811214229
 C          5.5541753524        3.2212581428       -0.7493115908
 C          5.1095490893        1.9401490538       -1.0344041015
 H          4.6555105349        1.6871789810       -1.9781423852
 H          5.4471645742        4.0011640392       -1.4860402709
 H          6.4778572861        4.4930775240        0.7000219392
 H          6.7222770466        2.7097276992        2.3876443787
 H          5.9099228557        0.4043844878        1.8634685938
 H          2.8869860422       -0.9794430350       -1.7898919814
 H          3.0994973482        0.8117203610        1.3550836594
 H          1.2798756969        0.7747464770        3.0283537744
 H         -0.7610732701       -0.5478263788        2.6077971539
 H         -1.7572991617       -2.3739957287        1.4633620654
 C         -1.1965911616       -3.2778358395       -0.3899153862
 C         -0.4558257288       -4.4635706653        0.1499601816
 C         -1.9390252207       -4.5341426368       -0.0516659923
 H         -2.3217800284       -5.1393166014       -0.8597886694
 H         -2.5745564227       -4.5195962591        0.8215510069
 H          0.1826720508       -5.0224093413       -0.5174026755
 H         -0.0821470862       -4.3983010821        1.1607819696
 H         -1.0798763747       -3.0428636037       -1.4409234265
