  62
        -98.94338083
 C          1.9485808220        0.8579440210        0.0467527961
 C          2.2323827349       -0.1172133169        1.0305712670
 C          2.5744269419       -1.4547123392        0.5316098189
 C          2.5570440220       -1.6851853620       -0.7940873692
 C          2.9316083730       -2.9859875823       -1.4424824121
 C          4.4270713112       -3.0245109893       -1.7880779664
 C          5.3388932511       -2.6132979946       -0.6320968824
 H          6.3692569053       -2.7054143324       -0.9819157365
 H          5.1691645736       -1.5588067850       -0.4030622461
 C          5.1565528892       -3.4437623091        0.6459119776
 H          6.1415965243       -3.7078391172        1.0361534816
 H          4.6393409331       -4.3748995959        0.4121705692
 C          4.4120824139       -2.7212746568        1.7702191766
 H          4.5259898435       -3.3070200299        2.6862384299
 H          4.8712199220       -1.7452555546        1.9463856544
 C          2.9088002156       -2.5107980205        1.5473359002
 H          2.4363529564       -3.4598802223        1.2845102718
 H          2.4755485679       -2.1647004336        2.4907946112
 H          4.6054006999       -2.3439663099       -2.6236765179
 H          4.6799600738       -4.0356285541       -2.1119745317
 H          2.6794759010       -3.8046686137       -0.7711840149
 H          2.3502660005       -3.0902600229       -2.3601128081
 O          2.2431929344       -0.7327182943       -1.7088536693
 C          1.9316045202        0.5598787836       -1.3154524006
 O          1.6683325631        1.3339385375       -2.2557609988
 H         -0.5437439404        0.6525661375        0.2617646400
 C         -0.7821955089        1.6655409705       -0.0303660923
 C          0.2051728262        2.6415754147        0.0056399337
 C         -0.1310025599        3.9377355313       -0.3657650977
 C         -1.4201597192        4.2383842317       -0.7700965500
 C         -2.3973554660        3.2619535380       -0.8105532441
 C         -2.0701805202        1.9597937401       -0.4454162878
 N         -3.0279970704        0.9366858353       -0.5253605389
 S         -2.8599064708       -0.4615598122        0.3945380395
 O         -2.6328786428       -0.1269962665        1.7835774966
 O         -1.8830873327       -1.3208615643       -0.2280810530
 C         -4.4909577140       -1.1542698282        0.1951141836
 C         -5.4533790827       -0.9037280610        1.1551509633
 C         -6.7285754378       -1.4167728448        0.9767442311
 C         -7.0192554020       -2.1653650551       -0.1538674101
 C         -6.0426949741       -2.4101190270       -1.1079943359
 C         -4.7654562623       -1.9005745356       -0.9352128313
 H         -3.9715181978       -2.0708640873       -1.6438639659
 H         -6.2707646892       -2.9953812876       -1.9841559324
 H         -8.0122112492       -2.5633003939       -0.2910099275
 H         -7.4885034646       -1.2311386439        1.7184970884
 H         -5.1778020675       -0.3251349264        2.0221349409
 H         -3.9800730486        1.2735211484       -0.5494710704
 H         -3.4004458185        3.4969445491       -1.1315280831
 H         -1.6672788939        5.2493417934       -1.0565849051
 H          0.6181158056        4.7121565962       -0.3401702718
 C          1.5860892140        2.2630194152        0.4847685403
 H          1.5630147010        2.2292223906        1.5856568435
 C          2.6582190643        3.2424638282        0.0494328550
 C          3.0003183489        4.4286900689        0.8992675425
 C          3.9523738891        3.2758854157        0.8043186052
 H          4.8702180071        3.4041611541        0.2505684709
 H          4.0436064931        2.6152048580        1.6544549443
 H          2.4551251457        4.5569314885        1.8222573551
 H          3.2684261228        5.3528750397        0.4098083212
 H          2.7039178597        3.3505146344       -1.0285645023
 O          2.2044217333        0.1224055057        2.2701044023
