  62
        -98.94041287
 C         -2.0348570648       -1.4405391383        0.4326215382
 C         -2.3504230114       -0.8367609321       -0.8093520969
 C         -3.1872946229        0.3730639899       -0.7411898702
 C         -3.5974210491        0.8337130270        0.4537241465
 C         -4.3876167414        2.0916794467        0.6666572196
 C         -3.4600545754        3.2948514986        0.8889915854
 C         -2.3461112367        3.4126433323       -0.1515128848
 H         -1.7659141254        4.3065889706        0.0878148597
 H         -1.6768000963        2.5545280676       -0.0550895604
 C         -2.8403240095        3.4992406799       -1.6022407117
 H         -3.8959762429        3.7723219602       -1.6198288820
 H         -2.2916090267        4.2930010766       -2.1137399015
 C         -2.6358065282        2.2203979585       -2.4165431948
 H         -2.8217123617        2.4535019528       -3.4684952574
 H         -1.5942616355        1.8976038726       -2.3356102911
 C         -3.5398826189        1.0386417314       -2.0423908894
 H         -3.4198103846        0.2728061197       -2.8144938046
 H         -4.5828089711        1.3616067239       -2.0396527843
 H         -4.0641744059        4.2037018537        0.8824694664
 H         -3.0013951406        3.1989080982        1.8757992393
 H         -5.0261360060        2.2658054264       -0.1971698412
 H         -5.0148090819        1.9587928136        1.5496273891
 O         -3.2847384257        0.2229648833        1.6239801977
 C         -2.4996872568       -0.9163744334        1.6436400004
 O         -2.2904871378       -1.3710782790        2.7850262763
 O         -1.9605638662       -1.2611298089       -1.9289120600
 C         -1.1781394687       -2.6922355725        0.5579542450
 C          0.2842875070       -2.3278866457        0.5526517648
 C          1.1200175933       -2.6793525317        1.6055249910
 C          2.4566918171       -2.3176176588        1.5945384561
 C          2.9847526236       -1.5973173115        0.5382108247
 C          2.1534532882       -1.2325217804       -0.5138299304
 C          0.8153195835       -1.5968172512       -0.5018402408
 H          0.1731895323       -1.3164971373       -1.3238808599
 N          2.6700462178       -0.4866129376       -1.5868577901
 S          3.6619221324        0.8102775253       -1.2294270571
 O          3.4872550630        1.7394848430       -2.3230490505
 O          5.0079831566        0.3401043144       -1.0144661359
 C          3.0262181294        1.5031433613        0.2883234998
 C          3.8520413946        1.6048180047        1.3892078413
 C          3.3434726797        2.1351996195        2.5639473259
 C          2.0220873281        2.5495774130        2.6177499084
 C          1.2050165255        2.4430921436        1.5025941159
 C          1.7089017831        1.9158027465        0.3250121299
 H          1.0957582310        1.8242641605       -0.5581845900
 H          0.1763888788        2.7642653702        1.5484346404
 H          1.6225187561        2.9580084991        3.5324809393
 H          3.9762664613        2.2206112418        3.4325001138
 H          4.8719738780        1.2668510960        1.3035037221
 H          1.9782179418       -0.2446787892       -2.2811458549
 H          4.0249077707       -1.3155912945        0.5092482263
 H          3.0950386176       -2.5991981664        2.4177602565
 H          0.7124787656       -3.2285019123        2.4415234772
 H         -1.4151130719       -3.0995793349        1.5527038603
 C         -1.5404105161       -3.7602018745       -0.4671487400
 C         -0.6050984703       -4.2553839608       -1.5258556773
 C         -0.9370329842       -5.1293665487       -0.3564505250
 H         -1.5694954933       -5.9904145492       -0.5106757060
 H         -0.1705660809       -5.2716616635        0.3907022085
 H         -1.0266135037       -4.4936807850       -2.4907529391
 H          0.3859303694       -3.8328490273       -1.5793850251
 H         -2.5890653771       -3.7161126271       -0.7429424690
