  62
        -98.94566247
 C         -1.4416480432        1.2733914919       -0.1193834192
 C         -1.5733046847       -0.0170625878        0.4517959896
 C         -2.7135066659       -0.8131802295       -0.0249783199
 C         -3.5370104830       -0.3221026596       -0.9668198342
 C         -4.7229427501       -1.0269696809       -1.5676331859
 C         -6.0037279618       -0.9227913336       -0.7279898217
 C         -6.0149658011       -1.7599479573        0.5518404116
 H         -7.0427442719       -1.7669480939        0.9203253457
 H         -5.7478901138       -2.7898246691        0.3125991360
 C         -5.0961538651       -1.2326326537        1.6627719902
 H         -5.6340738550       -1.2389463994        2.6133876086
 H         -4.8291537502       -0.1946449273        1.4518384342
 C         -3.8139347059       -2.0411443197        1.8621640815
 H         -3.2212180502       -1.5581485416        2.6428694679
 H         -4.0639523144       -3.0484224616        2.2028554420
 C         -2.9408392534       -2.1537062602        0.6058702875
 H         -1.9650351980       -2.5554743418        0.8917156525
 H         -3.3963577274       -2.8375014502       -0.1105767913
 H         -6.8330204992       -1.2516025710       -1.3585970679
 H         -6.1720864122        0.1273109596       -0.4782850042
 H         -4.9059527824       -0.5552655671       -2.5357073602
 H         -4.4783832619       -2.0766021317       -1.7349662949
 O         -3.3659322558        0.9127266512       -1.5100339659
 C         -2.3311710165        1.7332686988       -1.0949276790
 O         -2.3085486217        2.8466580917       -1.6595576648
 H          0.7044920170       -0.0941362157       -0.7282566497
 C          1.3079244907        0.7630720537       -0.9780569466
 C          0.9137735423        2.0328922032       -0.5866395507
 C          1.7040109274        3.1182426052       -0.9511479393
 C          2.8576500231        2.9332180121       -1.6899319149
 C          3.2528310002        1.6631221911       -2.0700186750
 C          2.4691515579        0.5713806246       -1.7149731579
 N          2.8321682994       -0.7246764049       -2.1071312040
 S          2.6044465915       -2.0206807075       -1.0713364838
 O          3.4813534905       -3.0447940603       -1.6016752840
 O          1.2085579800       -2.3669470805       -1.0007572524
 C          3.2363568055       -1.4536966155        0.4965984742
 C          4.6101272206       -1.3535242973        0.6155888360
 C          5.1502056910       -0.8667921597        1.7936046761
 C          4.3097337906       -0.4845512976        2.8287613763
 C          2.9354110336       -0.5952876299        2.6939525768
 C          2.3859525689       -1.0835896061        1.5171873165
 H          1.3179862678       -1.1703606634        1.3889355788
 H          2.2780545051       -0.3017183886        3.4972407920
 H          4.7275630364       -0.1004803723        3.7460425663
 H          6.2197443710       -0.7845577343        1.9012062844
 H          5.2275956020       -1.6744235630       -0.2077641422
 H          3.7205607340       -0.7875355524       -2.5823861084
 H          4.1517807757        1.5155426412       -2.6486120305
 H          3.4574602492        3.7847775698       -1.9722483428
 H          1.3990661377        4.1135474739       -0.6659623641
 C         -0.3338123637        2.2472720193        0.2410369730
 H         -0.7236890169        3.2451482491       -0.0059073894
 C          0.0329018691        2.2288391975        1.7139277359
 C          0.5170342898        3.4810586983        2.3775866320
 C         -0.8424470488        2.9387818566        2.7005080328
 H         -1.0081450539        2.4805822037        3.6637735609
 H         -1.7055523650        3.4620922616        2.3142002596
 H          0.5689807109        4.3811505010        1.7845209209
 H          1.2938521458        3.3995151128        3.1218772628
 H          0.4719856353        1.2914145767        2.0273290149
 O         -0.7980953380       -0.5035439113        1.3157146238
