  62
        -98.93805040
 C         -2.4822363949       -1.1861075836       -0.0803959478
 C         -3.2129551338       -0.4752269870        0.8977819946
 C         -4.0231130514        0.6578342535        0.4174130675
 C         -4.0201007601        0.9508573831       -0.8949444645
 C         -4.7252985247        2.0890068333       -1.5795616635
 C         -3.7904552206        3.3027473236       -1.7169260667
 C         -3.7791444967        4.2473856445       -0.5154692374
 H         -2.9850179038        4.9785001035       -0.6837734376
 H         -4.7241981261        4.7931486302       -0.4789089919
 C         -3.5503064054        3.5781301748        0.8424781481
 H         -3.1972079211        4.3424300420        1.5378675688
 H         -2.7582488927        2.8314614436        0.7563122060
 C         -4.8188941617        2.9307683175        1.4180727689
 H         -4.9684417902        3.2781035546        2.4425051018
 H         -5.6822594085        3.2717329758        0.8471692902
 C         -4.8073159751        1.3953624745        1.4685278648
 H         -4.3737863453        1.0662892442        2.4184546559
 H         -5.8396825059        1.0303306595        1.4546068982
 H         -2.7802682320        2.9275284912       -1.9007127224
 H         -4.0896529157        3.8778965739       -2.5953484992
 H         -5.6372736617        2.3515641075       -1.0519188392
 H         -4.9853924200        1.7363275018       -2.5796596858
 O         -3.2922633481        0.2451575538       -1.8034005746
 C         -2.5011388195       -0.8271907532       -1.4281874283
 O         -1.8804146427       -1.3625650511       -2.3645220642
 O         -3.1799705750       -0.7652393532        2.1259983861
 C         -1.6170340575       -2.3565367875        0.3484007048
 C         -0.1686841012       -2.0801121521        0.0246918511
 C          0.6719341072       -3.0062265184       -0.5777951668
 C          1.9936974659       -2.6869592157       -0.8387674587
 C          2.5060053636       -1.4473753283       -0.5046981867
 C          1.6790330442       -0.5184683143        0.1140378313
 C          0.3576734798       -0.8430951243        0.3777172148
 H         -0.2850481967       -0.1182567414        0.8635620451
 N          2.1874351955        0.7482958438        0.4528038977
 S          3.6091212468        0.8169620537        1.3457673596
 O          3.7691736342       -0.3558394901        2.1738389788
 O          3.5611405495        2.0887591781        2.0335657669
 C          4.8890774976        0.8730444948        0.1099323580
 C          5.8878143258       -0.0808560121        0.1078394610
 C          6.8771369274       -0.0125501248       -0.8608524228
 C          6.8505717916        1.0032801302       -1.8040569927
 C          5.8419255149        1.9552449299       -1.7863023460
 C          4.8505416663        1.8932224517       -0.8202069282
 H          4.0520647905        2.6146416757       -0.7691790965
 H          5.8245144935        2.7437860061       -2.5213314720
 H          7.6205329544        1.0539760300       -2.5576290673
 H          7.6622564532       -0.7512601881       -0.8762578689
 H          5.8645454868       -0.8550029645        0.8581890694
 H          1.4955170487        1.3693198188        0.8467602995
 H          3.5320054031       -1.1933308849       -0.7146449529
 H          2.6331711468       -3.4143438557       -1.3149962623
 H          0.2917363899       -3.9773603465       -0.8484090709
 H         -1.7143502269       -2.4070861137        1.4436956612
 C         -2.1388413333       -3.6477068481       -0.2456922534
 C         -1.9371650900       -4.9466746627        0.4740283324
 C         -3.3002578968       -4.3276379149        0.4131248575
 H         -4.0508988780       -4.7875817952       -0.2118089160
 H         -3.6978543483       -3.8725927179        1.3087865768
 H         -1.7540191346       -5.8365706203       -0.1090110900
 H         -1.4106011529       -4.9197256134        1.4161485205
 H         -2.1073601975       -3.6490662485       -1.3293311868
