  62
        -98.93496403
 C         -1.7676033898       -0.1627148097        0.2113003303
 C         -2.8704663298       -0.0898213103        1.0904892103
 C         -4.2107185398       -0.1008303096        0.4753254102
 C         -4.3123053298       -0.2039042185       -0.8623132498
 C         -5.5558278697       -0.2286009076       -1.7150898299
 C         -6.7192907699       -1.0987777179       -1.2150370707
 C         -7.9171129398       -0.2869701682       -0.7186978900
 H         -8.0560928497        0.5689003224       -1.3825408093
 H         -8.8140188098       -0.9058764081       -0.7935885006
 C         -7.8157330298        0.2048979205        0.7241457904
 H         -8.6552310197        0.8810041505        0.9028373310
 H         -7.9311525999       -0.6421758100        1.4038778497
 C         -6.5169663797        0.9323977001        1.0773381111
 H         -6.2165524596        1.5937025008        0.2653103516
 H         -6.7140572596        1.5645187094        1.9459517716
 C         -5.3616979598       -0.0127799803        1.4402202803
 H         -4.9066664698        0.3086836088        2.3824801106
 H         -5.7471581499       -1.0200262204        1.6228484794
 H         -7.0549440299       -1.7164600472       -2.0496056812
 H         -6.3695013199       -1.7735938586       -0.4354316512
 H         -5.8974297796        0.7996320525       -1.8584761890
 H         -5.2206200198       -0.5831668168       -2.6923566902
 O         -3.2171328298       -0.2788948779       -1.6724131499
 C         -1.9272305798       -0.2534042385       -1.1707150198
 O         -1.0348155997       -0.3188647878       -2.0360041799
 O         -2.7434838398       -0.0085752914        2.3433893904
 C         -0.3642053698       -0.1441965603        0.7843807203
 C          0.4340944403        1.0173453401        0.2445489413
 C         -0.1899688995        2.2437800703        0.0322607023
 C          0.5184828306        3.3238971507       -0.4560324767
 C          1.8724737606        3.2137251107       -0.7186949168
 C          2.5114054205        2.0023894705       -0.4896950978
 C          1.7918762503        0.9125245201       -0.0180202787
 H          2.3077258002       -0.0183260400        0.1502349205
 N          3.8837308005        1.8553165205       -0.7427535579
 S          4.8404535303        1.0375317495        0.3610418014
 O          4.3411570103        1.1816129084        1.7084089916
 O          6.1792985804        1.5358262496        0.1243737319
 C          4.7755013502       -0.6690257701       -0.1411730600
 C          4.8034744400       -1.6499670209        0.8300767192
 C          4.8130700299       -2.9805938706        0.4408982280
 C          4.7936541499       -3.3050203194       -0.9066594023
 C          4.7656973500       -2.3075331386       -1.8696805314
 C          4.7617050702       -0.9755861389       -1.4874516703
 H          4.7387045603       -0.1770276883       -2.2098675796
 H          4.7469869400       -2.5634889777       -2.9168397516
 H          4.7987956698       -4.3407982092       -1.2077759631
 H          4.8340856198       -3.7568114312        1.1894431974
 H          4.8048839600       -1.3537997018        1.8669022194
 H          4.3428045605        2.6881774308       -1.0822791472
 H          2.4291218907        4.0580506310       -1.0964402960
 H          0.0148442007        4.2637868309       -0.6259802059
 H         -1.2453551795        2.3385497802        0.2483935924
 H         -0.4908478298        0.0087631088        1.8673957204
 C          0.3048261601       -1.4850603102        0.5584201292
 C          1.2803178600       -2.0315720611        1.5560869487
 C         -0.0831653601       -2.6399772009        1.4308921682
 H         -0.1736071202       -3.6177602105        0.9825774474
 H         -0.8049391301       -2.4483067215        2.2115432083
 H          2.1263670699       -2.5934019809        1.1898273583
 H          1.4938409100       -1.4321053119        2.4286322193
 H          0.4798917501       -1.6868059693       -0.4925545010
