  62
        -98.94181034
 C         -1.9337920533       -1.2184744959       -0.2943502857
 C         -0.8739496764       -1.6667595821       -1.1165554529
 C          0.1575942105       -2.4725719020       -0.4565222899
 C          0.0395771041       -2.7594061738        0.8522205697
 C          1.0158037314       -3.5531995387        1.6776160593
 C          2.3755683554       -2.8636090940        1.9116195074
 C          3.4750441948       -3.2912124235        0.9303670605
 H          4.4145743132       -3.3837504776        1.4790533551
 H          3.2348992652       -4.2850704622        0.5498452927
 C          3.7344741497       -2.3428087100       -0.2446455926
 H          4.3264091204       -2.8824993662       -0.9869485860
 H          4.3304917674       -1.4970273314        0.1052342789
 C          2.4921518979       -1.7664282946       -0.9223396675
 H          2.0554095469       -0.9957230184       -0.2809745368
 H          2.8036495118       -1.2628807218       -1.8399925513
 C          1.3925227094       -2.7978106795       -1.2451576277
 H          1.1203079200       -2.7346995556       -2.3005180926
 H          1.7337254968       -3.8096714217       -1.0333178142
 H          2.6976506845       -3.1262639292        2.9210330346
 H          2.2326496382       -1.7817920753        1.8914468912
 H          0.5263423051       -3.7144282145        2.6401468227
 H          1.1726137725       -4.5278514913        1.2102561801
 O         -1.0273928550       -2.3617387511        1.5950561346
 C         -1.9943116166       -1.5221347912        1.0654526874
 O         -2.8514195994       -1.1431043524        1.8884967102
 H         -0.5813387625        0.8970224520       -0.4008180743
 C         -1.3797021845        1.5237306854       -0.0316986439
 C         -2.6965217842        1.1090636284       -0.1984391892
 C         -3.7140578541        1.9263474673        0.2732077267
 C         -3.4108452124        3.1072925229        0.9307632970
 C         -2.0988475180        3.4844008040        1.1469587302
 C         -1.0715314424        2.6798691725        0.6630386039
 N          0.2729740290        3.0372943301        0.8525778099
 S          1.4816403204        1.9136742386        1.1375697322
 O          0.9557948138        0.6075927556        1.4589618346
 O          2.3313222798        2.5163105680        2.1450285287
 C          2.4038631174        1.8365769931       -0.3866810184
 C          1.8030361850        2.1010548359       -1.5999705130
 C          2.5588393496        1.9921533237       -2.7578255537
 C          3.8928887798        1.6242137728       -2.6850935781
 C          4.4846775342        1.3679597710       -1.4577126019
 C          3.7347218270        1.4746370442       -0.2981347652
 H          4.1534866819        1.2918809285        0.6785925272
 H          5.5232054752        1.0842112146       -1.4010596137
 H          4.4741936045        1.5378615593       -3.5894782488
 H          2.0981994171        2.1920470831       -3.7120079596
 H          0.7641377733        2.3856295364       -1.6350356568
 H          0.4132308670        3.8554685210        1.4266127782
 H         -1.8659174681        4.3888275834        1.6882647868
 H         -4.2097381495        3.7326495675        1.2995773228
 H         -4.7426640252        1.6332942727        0.1413374489
 C         -2.9272965105       -0.2244128774       -0.8699028034
 H         -2.6606345672       -0.1276704122       -1.9332543116
 C         -4.3511424986       -0.7235750789       -0.7657842690
 C         -5.3798106026       -0.2803725958       -1.7620778416
 C         -4.8584675407       -1.6844802186       -1.7978013384
 H         -5.5068327960       -2.4866594545       -1.4790895792
 H         -4.1815761563       -1.9604121757       -2.5930942908
 H         -5.0626178958        0.3964503393       -2.5408960749
 H         -6.3915294912       -0.1198076640       -1.4213652535
 H         -4.6624360324       -0.8812988180        0.2604728445
 O         -0.7840449257       -1.3848168872       -2.3431983271
