  62
        -98.93337160
 C         -1.6360227896       -1.1507137300        0.1426382512
 C         -2.0931570796        0.0773969896       -0.3951116898
 C         -3.5517822795        0.2011477093       -0.5616225402
 C         -4.3587860895       -0.8132130105       -0.2062686296
 C         -5.8545846595       -0.8776448307       -0.3681259099
 C         -6.6753664898        0.1248702298        0.4658096492
 C         -7.0222802697        1.4250044593       -0.2700230819
 H         -7.0082406695        1.2352504884       -1.3440559117
 H         -8.0453069198        1.7097770894       -0.0157832623
 C         -6.1317103399        2.6301298096        0.0477402574
 H         -6.3196852998        3.3940089190       -0.7099321532
 H         -6.4262432301        3.0465377703        1.0138003570
 C         -4.6293986999        2.3529866597        0.1085144079
 H         -4.3881465500        1.8367610605        1.0408352584
 H         -4.1060625000        3.3106481998        0.1438220873
 C         -4.0815543996        1.5134496789       -1.0618589713
 H         -4.8512558994        1.3550155583       -1.8160787614
 H         -3.2417717895        2.0315140286       -1.5299322415
 H         -7.6084950698       -0.3748450800        0.7307705593
 H         -6.1497372100        0.3414195106        1.3954201091
 H         -6.0975012193       -0.7525557815       -1.4258388600
 H         -6.1337562895       -1.8931013705       -0.0795093892
 O         -3.8795308996       -1.9680283200        0.3320459714
 C         -2.5235797096       -2.1553969997        0.5388955518
 O         -2.2360602396       -3.2423945893        1.0780459427
 H          1.7182829605        0.2853533697       -0.7083877491
 C          1.4728092002        0.5090183704        0.3154615007
 C          0.5179666102       -0.2352955391        0.9888460810
 C          0.1764695598        0.1334084818        2.2875927107
 C          0.7716852896        1.2234601323        2.8918744100
 C          1.7374969097        1.9550849719        2.2229236596
 C          2.0822947800        1.5973739210        0.9253166400
 N          3.0540959701        2.3194530005        0.2222025397
 S          4.0261008404        1.5764850397       -0.9074824996
 O          5.2101878003        2.4086666598       -0.9598540599
 O          3.3300673807        1.4048294187       -2.1574271496
 C          4.4393059604       -0.0181643297       -0.2184972683
 C          4.9636193001       -0.0755969287        1.0576436319
 C          5.2855509701       -1.3111168283        1.5952452229
 C          5.0831683804       -2.4632350388        0.8508921837
 C          4.5646438507       -2.3889260298       -0.4323987765
 C          4.2379794307       -1.1554662103       -0.9733099675
 H          3.8250764809       -1.0525675811       -1.9643443376
 H          4.4090870309       -3.2854693803       -1.0114811258
 H          5.3312486904       -3.4247285985        1.2719184545
 H          5.6910245599       -1.3726829475        2.5922703930
 H          5.1166949999        0.8367802717        1.6102993112
 H          3.5363165799        3.0333142710        0.7463791892
 H          2.2069729695        2.8055102823        2.6933637891
 H          0.4892730994        1.5029430231        3.8957491697
 H         -0.5748250102       -0.4419185878        2.8118418809
 C         -0.1607309596       -1.4325122897        0.3724085618
 H         -0.1418598097       -2.2471532691        1.1151028024
 C          0.5717381407       -1.9510003905       -0.8561630077
 C         -0.1230214490       -2.8073085313       -1.8709131872
 C          0.3105730410       -1.4195690416       -2.2318206281
 H          1.1483106911       -1.2939185320       -2.9029534480
 H         -0.4417590891       -0.6540331517       -2.3393433489
 H          0.4150113512       -3.6427059216       -2.2926416864
 H         -1.1781381690       -2.9931789713       -1.7312371773
 H          1.5992162007       -2.2161154003       -0.6247883972
 O         -1.3418273996        1.0278621794       -0.7326183103
