  62
        -98.93688209
 C          2.4141403996        1.0836020916       -0.2049529182
 C          2.4816964827       -0.1489487103        0.4908799314
 C          3.8331437321       -0.5940848331        0.8635960761
 C          4.8974978881        0.1823524712        0.5958223782
 C          6.3312537642       -0.1295587167        0.9286740779
 C          7.0300578735       -1.0240387454       -0.1045336775
 C          6.5910224656       -2.4888947290       -0.1006342730
 H          7.3080146079       -3.0394730729       -0.7128070585
 H          6.6572401695       -2.8842381826        0.9133861935
 C          5.1808085873       -2.7298154589       -0.6574907692
 H          4.8606131420       -1.8569820479       -1.2314797271
 H          5.2010901669       -3.5752730233       -1.3488983981
 C          4.1245520143       -3.0383038660        0.4039083323
 H          4.3638326807       -3.9841525834        0.8949383219
 H          3.1592644238       -3.1544891641       -0.0961863470
 C          3.9742532149       -1.9536532452        1.4787294851
 H          3.0627321489       -2.1560086577        2.0465554859
 H          4.8249079600       -1.9779521769        2.1593243685
 H          6.8717545600       -0.5990592167       -1.0984607143
 H          8.1014912000       -0.9878032557        0.1053181316
 H          6.8561233043        0.8273700107        0.9668944583
 H          6.3860405217       -0.5960940688        1.9125747347
 O          4.7818071154        1.3942518792       -0.0107223228
 C          3.5502310434        1.8637017030       -0.4364967807
 O          3.5946679539        2.9817886671       -0.9880843032
 O          1.4825152380       -0.8499228872        0.7938608937
 C          1.0945442309        1.6525085484       -0.6953695628
 C          0.0345351786        1.5259749367        0.3707609272
 C          0.2222227879        2.1921231709        1.5796818997
 C         -0.7245167866        2.1175020464        2.5821548293
 C         -1.8898258371        1.3951445539        2.3933814246
 C         -2.0838517268        0.7226233632        1.1933399766
 C         -1.1240961911        0.7884091456        0.1928295720
 H         -1.2933989417        0.2379747455       -0.7174271502
 N         -3.2424335532       -0.0410835867        0.9789242821
 S         -3.8936226382       -0.0927159636       -0.5761344971
 O         -3.2366509369       -1.1278830726       -1.3334719580
 O         -3.8824325554        1.2298181832       -1.1614503969
 C         -5.5670606771       -0.5898500048       -0.2087229503
 C         -5.8330407372       -1.9311491522       -0.0068119249
 C         -7.1256585097       -2.3173757868        0.3100578649
 C         -8.1252120465       -1.3619272679        0.4198048480
 C         -7.8438250693       -0.0199926481        0.2120644960
 C         -6.5528162900        0.3733216710       -0.1038865293
 H         -6.2893045378        1.4034283862       -0.2824549119
 H         -8.6236757653        0.7198076611        0.2944743819
 H         -9.1304701938       -1.6656537932        0.6657619243
 H         -7.3487146921       -3.3600412402        0.4691176460
 H         -5.0261040206       -2.6377016855       -0.1115649452
 H         -3.9526318731        0.1101993153        1.6818252504
 H         -2.6343671007        1.3413070077        3.1732440039
 H         -0.5604705509        2.6346970163        3.5157625161
 H          1.1298341736        2.7638612234        1.7229056731
 H          1.2854598195        2.7285419493       -0.8477103110
 C          0.6481503063        1.0980362649       -2.0402728184
 C          1.6460394177        0.6779385466       -3.0765261315
 C          0.7934348730       -0.3492454431       -2.3973887122
 H         -0.0025721404       -0.8182411728       -2.9581155734
 H          1.2494474415       -0.9998600325       -1.6679624803
 H          1.4437976111        0.9170160183       -4.1097094945
 H          2.6923521716        0.7312306831       -2.8120520509
 H         -0.2434901920        1.5994789455       -2.4075542929
