  62
        -98.94020644
 C         -2.4767130834       -1.0891715632        0.0875070128
 C         -2.7386108016       -0.0440874905       -0.8307229930
 C         -4.1513415519        0.3359370065       -0.9777059862
 C         -5.0895965194       -0.3274063461       -0.2773573352
 C         -6.5555922165       -0.0061472284       -0.2882384252
 C         -6.9115647665        0.9916924960        0.8228623480
 C         -5.9978634673        2.2165058361        0.8684181246
 H         -4.9893178761        1.8996119087        1.1440504785
 H         -6.3612686971        2.8636641444        1.6696403763
 C         -5.9363384289        3.0114973398       -0.4432851587
 H         -6.0158086597        4.0756757704       -0.2116675758
 H         -6.7878744417        2.7526014486       -1.0734730679
 C         -4.6426955550        2.8246312394       -1.2384508792
 H         -3.7821057524        2.9913171584       -0.5854536940
 H         -4.6116598050        3.5871033665       -2.0212920925
 C         -4.4697927731        1.4617315956       -1.9208916432
 H         -3.6131057392        1.5352091471       -2.5972319837
 H         -5.3572664827        1.2305110667       -2.5134105420
 H         -6.8430575499        0.4775263063        1.7843349231
 H         -7.9454346064        1.3116613075        0.6814186392
 H         -6.8255412009        0.4032042170       -1.2596055162
 H         -7.1113844378       -0.9310749275       -0.1258032261
 O         -4.8000232082       -1.3467382738        0.5720944426
 C         -3.4905280392       -1.7428066295        0.7869012250
 O         -3.3606155731       -2.6699490394        1.6122902863
 H          1.5083808039       -0.8630836340       -0.4672363833
 C          1.0963678906       -0.1927807273        0.2682774608
 C         -0.1845838062       -0.3825499423        0.7611526654
 C         -0.6678538048        0.5085899401        1.7162778042
 C          0.1054583563        1.5669155645        2.1514680619
 C          1.3874505500        1.7478577897        1.6625675972
 C          1.8824323965        0.8609021796        0.7150144030
 N          3.1737010228        1.0209551272        0.1868558458
 S          4.0717389002       -0.3677711508       -0.1562043450
 O          3.7256603765       -0.8380273889       -1.4736295878
 O          3.9359391388       -1.3225455102        0.9206052510
 C          5.7213339243        0.3109537185       -0.1746482983
 C          6.1711149988        0.9374458691       -1.3216872408
 C          7.4414516063        1.4912384703       -1.3279493343
 C          8.2361607693        1.4109746933       -0.1939279925
 C          7.7718600764        0.7777393774        0.9491482493
 C          6.5019441531        0.2225579261        0.9626055645
 H          6.1028618435       -0.2873725725        1.8247070289
 H          8.3931874003        0.7139743466        1.8279065791
 H          9.2249270746        1.8417300165       -0.2021961735
 H          7.8070779955        1.9814637698       -2.2157489798
 H          5.5218464225        0.9672511173       -2.1812126411
 H          3.7214519782        1.7064683048        0.6886723615
 H          1.9945359786        2.5714110519        2.0067044592
 H         -0.2887252471        2.2525928534        2.8867131037
 H         -1.6646045519        0.3600926131        2.1104887656
 C         -1.0489610658       -1.5415775547        0.3264793977
 H         -1.0900327651       -2.2613819565        1.1584599166
 C         -0.5184241072       -2.2534323015       -0.9010865971
 C          0.5168804244       -3.3278873014       -0.7654609781
 C         -0.8912162152       -3.6856038884       -1.1327131461
 H         -1.0955111136       -4.0091869699       -2.1422168471
 H         -1.5098144905       -4.1620074634       -0.3858289789
 H          0.8625960398       -3.5668970040        0.2294951130
 H          1.2860174880       -3.3991697402       -1.5205778637
 H         -0.4652312678       -1.6028524384       -1.7673288234
 O         -1.8418420226        0.5436020513       -1.4903345429
