  62
        -98.94666877
 C          1.1778705499        1.2652050099        0.0823602103
 C          1.5759827501        0.2830160999        1.0225046101
 C          2.4238572299       -0.7983152902        0.5079494999
 C          2.7105344796       -0.8365748902       -0.8061180302
 C          3.6316877294       -1.8289906202       -1.4538236404
 C          5.0739053894       -1.3027711802       -1.4826083508
 C          5.5677551897       -0.7804041802       -0.1333405210
 H          6.6062732797       -0.4693589903       -0.2657630313
 H          4.9977444898        0.1120969598        0.1346980692
 C          5.4813312100       -1.7987547202        1.0123057391
 H          6.4149859202       -1.7691728402        1.5779870288
 H          5.3817852299       -2.8061607902        0.6067200491
 C          4.3494226303       -1.5382582902        2.0082086294
 H          4.3958433104       -0.5014260602        2.3509099594
 H          4.5101862106       -2.1777644802        2.8802464793
 C          2.9308794802       -1.8134763302        1.4926184998
 H          2.8828585800       -2.8186795302        1.0701671498
 H          2.2510949204       -1.7671354902        2.3481773600
 H          5.7278946192       -2.1071410903       -1.8243143410
 H          5.1317469092       -0.4873627702       -2.2072712808
 H          3.5944212895       -2.7691723802       -0.9068368604
 H          3.2976232491       -1.9960401702       -2.4792372903
 O          2.2224257593        0.0630093298       -1.6948989200
 C          1.4471339995        1.1368575798       -1.2807337198
 O          1.0728798392        1.8777400498       -2.2079106797
 H         -1.3186687597        0.7248899199        1.6591575610
 C         -1.7962868699        1.2682374199        0.8536448911
 C         -1.0707608901        2.2433957399        0.1782659009
 C         -1.6840545704        2.9250263499       -0.8640594190
 C         -2.9899546105        2.6305287199       -1.2199809686
 C         -3.7103427603        1.6619742100       -0.5441946184
 C         -3.1038674800        0.9771020200        0.5010526114
 N         -3.8284766799       -0.0282277600        1.1850347717
 S         -4.1014344601       -1.4252654700        0.3040501617
 O         -4.8980027605       -1.0957456900       -0.8491982280
 O         -4.6743483799       -2.3721247800        1.2326617219
 C         -2.4827625403       -1.9763494801       -0.2050838887
 C         -1.8881348506       -1.3858826701       -1.3024036089
 C         -0.6146394407       -1.7891059001       -1.6696007692
 C          0.0380329395       -2.7682844401       -0.9369566594
 C         -0.5674903002       -3.3420303601        0.1699819008
 C         -1.8385136701       -2.9395135201        0.5451321811
 H         -2.3495270399       -3.3643916801        1.3943320713
 H         -0.0526165501       -4.0985024501        0.7399838706
 H          1.0244799694       -3.0850672202       -1.2346601597
 H         -0.1339130809       -1.3298013101       -2.5194634594
 H         -2.4250866907       -0.6323845101       -1.8558907287
 H         -3.4037874596       -0.2820769400        2.0670141815
 H         -4.7209871104        1.4101800800       -0.8213631681
 H         -3.4530938307        3.1636583599       -2.0364900185
 H         -1.1334395905        3.6729686499       -1.4099619391
 C          0.3662494800        2.4491187099        0.5849950005
 H          0.4138915803        2.3860322199        1.6811848205
 C          0.9506135699        3.7749250799        0.1499654803
 C          0.5353175202        5.0265264299        0.8617865504
 C          1.9164658402        4.4781714698        1.0540913900
 H          2.7479886601        5.0044582198        0.6098871398
 H          2.1526538104        4.0085334698        1.9979772300
 H         -0.1675032096        4.9271026999        1.6751978706
 H          0.4171116000        5.9323658199        0.2872689104
 H          1.1384366496        3.8340090698       -0.9146988998
 O          1.2440671304        0.3170366799        2.2387040302
