  62
        -98.93117367
 C         -1.7929310878       -0.8164857957        0.7728190914
 C         -2.2032267458        0.5394351215        0.6971522593
 C         -3.6419181037        0.7851907392        0.5376107566
 C         -4.4890430774       -0.2580544931        0.4905719151
 C         -5.9910127986       -0.1991738101        0.3954789199
 C         -6.5707321257        0.3951800988       -0.9023799018
 C         -6.8823019586        1.8949788785       -0.8266611460
 H         -7.8243917981        2.0843135896       -1.3452906916
 H         -7.0395188703        2.1685552565        0.2173903759
 C         -5.8359949282        2.8256976055       -1.4470056341
 H         -6.0516099687        3.8421327260       -1.1104924111
 H         -5.9444410642        2.8096788756       -2.5339527182
 C         -4.3772282779        2.4974264207       -1.1278930443
 H         -4.0587534468        1.6310562518       -1.7126855738
 H         -3.7595490766        3.3349262067       -1.4581202919
 C         -4.0930050019        2.2055167630        0.3582828040
 H         -3.2763043110        2.8375560539        0.7124640466
 H         -4.9739462187        2.4079892823        0.9657681689
 H         -5.8947995707        0.1868597661       -1.7313425862
 H         -7.5023182622       -0.1361363659       -1.1040134329
 H         -6.3736428005        0.3603738260        1.2522011903
 H         -6.3282414350       -1.2329676731        0.4953206727
 O         -4.0586159020       -1.5450313278        0.5716227237
 C         -2.7099208943       -1.8657400724        0.6920141007
 O         -2.4939007188       -3.0902650371        0.7176869699
 O         -1.3975915015        1.5055195291        0.7772397319
 C         -0.3052664528       -1.0600934563        0.9437740557
 C          0.4023238230       -1.2221359631       -0.3770183965
 C         -0.1235643059       -2.0002339151       -1.4027146350
 C          0.5679272299       -2.1493016105       -2.5914301445
 C          1.8033245708       -1.5515367483       -2.7695325204
 C          2.3389777632       -0.7742981239       -1.7497901347
 C          1.6254145628       -0.5978876488       -0.5727431357
 H          2.0335766330        0.0297872414        0.2040390354
 N          3.5892523163       -0.1563070626       -1.8875902436
 S          4.6401082301       -0.1410580532       -0.5809075751
 O          5.9537964585       -0.0068701477       -1.1722130673
 O          4.4357068927       -1.2885539958        0.2706924208
 C          4.2417781084        1.3593867606        0.2885416797
 C          4.2712230604        2.5476466302       -0.4141789848
 C          3.9754467958        3.7258418057        0.2517585223
 C          3.6590277504        3.6962090749        1.6016975372
 C          3.6373411980        2.4954112052        2.2938846452
 C          3.9323893973        1.3132553717        1.6332795929
 H          3.9210002434        0.3573257576        2.1336840365
 H          3.3885761617        2.4737162810        3.3428652311
 H          3.4261826469        4.6139242226        2.1183486618
 H          3.9899725562        4.6624534175       -0.2819919999
 H          4.5249292581        2.5298307776       -1.4609319967
 H          4.0684117023       -0.3543460079       -2.7539162788
 H          2.3491169746       -1.6851639211       -3.6912866749
 H          0.1478033092       -2.7526637041       -3.3822750036
 H         -1.0716468258       -2.4954349554       -1.2552028040
 H          0.0769368753       -0.1334183152        1.4019643812
 C          0.0155158440       -2.1979959661        1.9033120278
 C          0.4887215048       -3.5458924511        1.4600451769
 C          1.4356673090       -2.6147230680        2.1526671981
 H          1.7320131700       -2.8426762956        3.1658243453
 H          2.2172913317       -2.1632049207        1.5581276364
 H          0.1151473460       -4.4083217188        1.9905472350
 H          0.6224114279       -3.7152934596        0.4032011533
 H         -0.6416754520       -2.1863817340        2.7677109029
