  62
        -98.94357906
 C         -1.1708978559       -0.9892516436        0.3163944446
 C         -1.6220623573        0.1783325163        0.9817879780
 C         -2.5719358700        1.0225850789        0.2471148189
 C         -2.8987455395        0.6942674940       -1.0155990189
 C         -3.8810643259        1.4418176954       -1.8690106098
 C         -5.3014295644        0.8824235783       -1.7065799103
 C         -5.7364151386        0.7155353680       -0.2506053177
 H         -6.7628451225        0.3427930618       -0.2586564636
 H         -5.1186531818       -0.0533947071        0.2189367077
 C         -5.6650459841        2.0016329440        0.5844067817
 H         -6.5814882559        2.0893170847        1.1716221143
 H         -5.6183826917        2.8690205177       -0.0750576491
 C         -4.4969313230        2.0525072275        1.5707469795
 H         -4.4850264579        1.1394546287        2.1712747266
 H         -4.6636714733        2.8908835142        2.2521602002
 C         -3.1067108050        2.2387743825        0.9496819431
 H         -3.1140989001        3.0989974044        0.2763899586
 H         -2.4045639555        2.4470132206        1.7626276760
 H         -5.9950500244        1.5492279720       -2.2220102040
 H         -5.3453229053       -0.0951511548       -2.1923718147
 H         -3.8594209418        2.4958128826       -1.5975301593
 H         -3.5741332915        1.3412378320       -2.9116791630
 O         -2.3933989215       -0.3932602447       -1.6490294386
 C         -1.5114655380       -1.2570170683       -1.0106356116
 O         -1.1198906827       -2.1952884168       -1.7293237316
 H          1.0511458804       -0.0375382331       -0.4141344240
 C          1.5822947297       -0.9754683750       -0.4546550637
 C          1.0642854858       -2.0780923921        0.2122492917
 C          1.7372326579       -3.2883320617        0.1076027085
 C          2.8910779186       -3.3815248085       -0.6524274244
 C          3.4064036365       -2.2783798404       -1.3072806761
 C          2.7369493783       -1.0626184322       -1.2126694350
 N          3.2107636236        0.0768772569       -1.8734492925
 S          2.8285106652        1.6128980752       -1.3572271428
 O          1.4506812479        1.9230224315       -1.6518340203
 O          3.8144924388        2.4528252838       -2.0044006162
 C          3.1092673418        1.6112010294        0.4048782226
 C          2.0625826543        1.8280076864        1.2768403434
 C          2.3035182594        1.7867505636        2.6408575576
 C          3.5842015792        1.5361180342        3.1075415106
 C          4.6297377136        1.3328703339        2.2191405548
 C          4.3923682281        1.3671075702        0.8550091622
 H          5.1814040025        1.2204653658        0.1357291440
 H          5.6255723773        1.1434301945        2.5859015760
 H          3.7667281021        1.5010300544        4.1699579899
 H          1.4811842832        1.9359248222        3.3225357161
 H          1.0738536821        2.0138729190        0.8859356105
 H          4.1286604788        0.0059562996       -2.2839609131
 H          4.3050572435       -2.3558236162       -1.8993787430
 H          3.3996009674       -4.3302100723       -0.7332866077
 H          1.3520172845       -4.1640993792        0.6030229377
 C         -0.1745635977       -1.8683901328        1.0490041796
 H          0.1251515609       -1.2562426373        1.9179456897
 C         -0.7550185612       -3.1573350099        1.6147001086
 C         -2.2345618493       -3.3580076051        1.7462444779
 C         -1.4550419868       -4.1646068910        0.7537974570
 H         -1.2969431704       -5.2134593458        0.9587909789
 H         -1.5624433989       -3.9309604505       -0.2935463197
 H         -2.8820397858       -2.5790072466        1.3694365367
 H         -2.6097753933       -3.8472097428        2.6328307127
 H         -0.1522118394       -3.5530095526        2.4262160616
 O         -1.2370008758        0.5052652107        2.1367937366
