  62
        -98.93637848
 C         -1.8330875106       -0.3978666394       -0.3313568539
 C         -2.9247335165       -1.1272860137        0.1928981523
 C         -4.2411003817       -0.4636124531        0.1685335351
 C         -4.3285168334        0.7914521465       -0.3075093269
 C         -5.5462797759        1.6715360291       -0.4363493624
 C         -6.5156436887        1.6905276460        0.7555623259
 C         -7.8457089614        0.9910436609        0.4696598811
 H         -8.1515467362        1.2308139458       -0.5508714079
 H         -8.6054466379        1.3976444285        1.1409286877
 C         -7.8344863509       -0.5259385622        0.6501073634
 H         -8.7888069763       -0.9092770290        0.2812760911
 H         -7.7792489409       -0.7626501355        1.7148601278
 C         -6.7005668093       -1.2614271533       -0.0668810056
 H         -6.5381293777       -0.8391748812       -1.0579171466
 H         -7.0130560144       -2.2980184460       -0.2098318889
 C         -5.3816291499       -1.2750492469        0.7202907319
 H         -4.9939004668       -2.2972303300        0.7703647311
 H         -5.5620679400       -0.9719556647        1.7556179007
 H         -6.7291476908        2.7340764796        0.9927508801
 H         -6.0366279223        1.2533669096        1.6301852681
 H         -5.1508931565        2.6751785706       -0.6090500665
 H         -6.0825322774        1.3889587581       -1.3458254846
 O         -3.2439460148        1.4628307376       -0.7912436910
 C         -1.9798463934        0.8980142819       -0.8234742896
 O         -1.1009903573        1.6395142047       -1.3015384049
 H          1.7456367735        0.5163730683       -0.9931285675
 C          1.5268203352        0.4960568491        0.0605343778
 C          0.4608614994       -0.2406319341        0.5501782730
 C          0.1971638478       -0.2084312413        1.9183760218
 C          0.9749219499        0.5500815199        2.7701421997
 C          2.0390922042        1.2858969141        2.2770759708
 C          2.3112206739        1.2616171455        0.9149118794
 N          3.3689959919        2.0216512104        0.3914478989
 S          4.4269415857        1.3887377475       -0.7344395396
 O          5.5123000493        2.3434134176       -0.7831879828
 O          3.7508638554        1.1239613166       -1.9777334737
 C          4.9987730946       -0.1331677393       -0.0006306249
 C          6.0846724077       -0.0852206548        0.8521878170
 C          6.5013500604       -1.2504651347        1.4746688597
 C          5.8220111903       -2.4369526810        1.2424255077
 C          4.7328508274       -2.4677719460        0.3853911942
 C          4.3136051498       -1.3063179234       -0.2445316146
 H          3.4741125979       -1.2944518902       -0.9195496257
 H          4.2062150228       -3.3910482057        0.2036936892
 H          6.1442610195       -3.3438733045        1.7292945946
 H          7.3510474074       -1.2303768417        2.1379447616
 H          6.5890323340        0.8565456766        0.9962708879
 H          3.8684090698        2.5681488434        1.0776876483
 H          2.6448099461        1.8860272179        2.9390594512
 H          0.7552653052        0.5689150951        3.8269070198
 H         -0.6384161519       -0.7794255258        2.2994250552
 C         -0.4578011102       -1.0441856244       -0.3355593664
 H         -0.6023964580       -2.0320046631        0.1248456179
 C          0.0488916128       -1.2364480390       -1.7481635579
 C          1.0673563386       -2.2976101190       -2.0353894449
 C         -0.3471100534       -2.4705595907       -2.4997435922
 H         -0.5603944792       -2.3847087105       -3.5546644705
 H         -0.9702710106       -3.1871637909       -1.9849121538
 H          1.4000951100       -2.9046244281       -1.2067387554
 H          1.8289577121       -2.0933167754       -2.7735906884
 H          0.1041890592       -0.3115741468       -2.3112415100
 O         -2.8075631677       -2.2911471909        0.6634626832
