  62
        -98.94053122
 C          2.3459553650       -0.1397150094       -0.2756936894
 C          3.5027893574       -0.4551996782       -1.0273314674
 C          4.7312974833        0.2518479743       -0.6428073045
 C          4.6851859771        1.1523765760        0.3562199027
 C          5.8698366038        1.9085364247        0.8828627791
 C          6.5368004300        1.1569686007        2.0433711239
 C          6.8134423298       -0.3167821705        1.7460432128
 H          7.3120734958       -0.7374992606        2.6219408940
 H          5.8621214957       -0.8423130170        1.6350489194
 C          7.6756619435       -0.5616891024        0.4998047476
 H          8.2000218008        0.3544875860        0.2261484923
 H          8.4338615824       -1.3098910866        0.7402564102
 C          6.9034494570       -1.0845725392       -0.7128693839
 H          6.3014591116       -1.9483320926       -0.4193692056
 H          7.6284906071       -1.4283352791       -1.4554001620
 C          5.9847324394       -0.0709357344       -1.4067744443
 H          5.6535234276       -0.5145891562       -2.3503146267
 H          6.5443315860        0.8389625455       -1.6327090232
 H          5.8800322071        1.2129145768        2.9145638394
 H          7.4722893725        1.6625228592        2.2896436309
 H          6.5844757697        2.0613302795        0.0765411954
 H          5.5252337755        2.8799914830        1.2409845656
 O          3.5491985527        1.4463350914        1.0394237518
 C          2.3541478240        0.8034476583        0.7517465932
 O          1.3961177717        1.1575035181        1.4645406205
 O          3.5056694884       -1.2839018879       -1.9776181914
 C          1.0441860826       -0.8471448035       -0.6022711729
 C         -0.0274043640        0.1533118460       -0.9576703008
 C          0.2556771267        1.1351822855       -1.9047712833
 C         -0.6991787916        2.0648256178       -2.2659924915
 C         -1.9637220114        2.0266588794       -1.7044048139
 C         -2.2572938196        1.0509298480       -0.7603905331
 C         -1.2919582848        0.1225566410       -0.3934585402
 H         -1.5499206640       -0.6219141970        0.3406888502
 N         -3.5231450340        0.9972688381       -0.1549196763
 S         -4.1737632964       -0.5168495862        0.2106401657
 O         -3.6628495609       -0.9568790738        1.4842688123
 O         -3.9806986581       -1.4192562500       -0.9021483715
 C         -5.8996171608       -0.0950783903        0.3701828270
 C         -6.7445926451       -0.2766121624       -0.7085496776
 C         -8.0780021868        0.0804195748       -0.5832752843
 C         -8.5408199764        0.6125209555        0.6108097600
 C         -7.6810134633        0.7879343755        1.6850952325
 C         -6.3468917096        0.4321326555        1.5670068388
 H         -5.6438897603        0.5416671295        2.3764218198
 H         -8.0448598701        1.1990976140        2.6128403970
 H         -9.5788117148        0.8895113333        0.7060996381
 H         -8.7495575426       -0.0579310670       -1.4152458941
 H         -6.3424489671       -0.7026423034       -1.6136315164
 H         -4.2004892469        1.5985065805       -0.6037737592
 H         -2.7117863067        2.7511722404       -1.9884621128
 H         -0.4614807722        2.8221115474       -2.9980951581
 H          1.2409510663        1.1596605281       -2.3508384167
 H          1.2546597821       -1.4510330140       -1.4984060604
 C          0.6522263188       -1.7775705616        0.5259880603
 C         -0.1926118913       -2.9840499789        0.2501012647
 C          1.2576795109       -3.1464604586        0.5903065204
 H          1.5195323613       -3.5502453384        1.5567943419
 H          1.9397785851       -3.4236447855       -0.2002745467
 H         -0.9346618008       -3.2694223253        0.9812503340
 H         -0.5016877957       -3.1543651567       -0.7704790850
 H          0.4982564549       -1.2534560655        1.4635199410
