  62
        -98.94940208
 C         -0.7468329791       -1.7838107036       -0.2188179790
 C         -1.9964970694       -1.7733710529        0.4417790220
 C         -2.9644972531       -0.7801861152       -0.0356605544
 C         -2.6260937323        0.0537232805       -1.0358026735
 C         -3.5162279733        1.0992987753       -1.6531810538
 C         -3.5744015175        2.4234916438       -0.8796327143
 C         -4.3596672074        2.3829997662        0.4312519781
 H         -4.5107425986        3.4179206417        0.7451929774
 H         -5.3443205015        1.9485304034        0.2541854068
 C         -3.6560415324        1.6253535832        1.5660548439
 H         -3.7215405262        2.2090954953        2.4877493228
 H         -2.5905608575        1.5239253000        1.3416988282
 C         -4.2434041490        0.2455284177        1.8643651731
 H         -3.6328488760       -0.2236485656        2.6403488471
 H         -5.2576109295        0.3577723798        2.2556897838
 C         -4.2904399853       -0.7008254931        0.6584160472
 H         -4.5340792628       -1.7027436897        1.0215090135
 H         -5.0666109190       -0.3829100395       -0.0378360357
 H         -2.5558732823        2.7584987825       -0.6693407831
 H         -4.0392263517        3.1638873543       -1.5352506572
 H         -4.5254934938        0.6999297807       -1.7612160744
 H         -3.1142126212        1.2991425337       -2.6487578499
 O         -1.4116125607        0.0137107274       -1.6450863897
 C         -0.4375521749       -0.8895037655       -1.2439333799
 O          0.6346111970       -0.8032429783       -1.8707606378
 O         -2.2923571641       -2.5631105097        1.3806220443
 C          0.3177585101       -2.7648720091        0.2295084849
 C          1.5865858124       -2.0492724666        0.6247797283
 C          2.8446928135       -2.6245016145        0.4851150607
 C          3.9796161407       -1.9346606160        0.8735975827
 C          3.8904219830       -0.6532163924        1.3863181441
 C          2.6370959843       -0.0700193425        1.5299465400
 C          1.5013166091       -0.7773145147        1.1732585698
 H          0.5363677584       -0.3122582627        1.3085914159
 N          2.4913923787        1.2352897081        2.0324495393
 S          1.4198112780        2.2791436590        1.2923863383
 O          1.8249638852        3.5898649865        1.7618365774
 O          0.0586618307        1.9107538180        1.5940522988
 C          1.7047946542        2.1880325031       -0.4661123300
 C          0.6274939681        2.3912123114       -1.3013146418
 C          0.8211585491        2.3828063992       -2.6718127862
 C          2.0905208014        2.1718841209       -3.1834417804
 C          3.1664040193        1.9759572072       -2.3328302162
 C          2.9774890873        1.9887044606       -0.9607592050
 H          3.8037150333        1.8370453330       -0.2858386523
 H          4.1528011288        1.8068559414       -2.7341191015
 H          2.2400750996        2.1540385730       -4.2515322158
 H         -0.0204044649        2.5262955402       -3.3304680722
 H         -0.3465371103        2.5329414958       -0.8604699208
 H          3.3560726200        1.7049192887        2.2594489017
 H          4.7774281382       -0.1099226523        1.6752220267
 H          4.9489904753       -2.3958806984        0.7625320181
 H          2.9352154712       -3.6148655971        0.0696453922
 H         -0.0935305253       -3.2565171444        1.1249138519
 C          0.5462416835       -3.8170027533       -0.8388620496
 C          0.8637925060       -5.2329382839       -0.4629516924
 C         -0.4824289357       -4.8908725350       -1.0242718804
 H         -0.7231648232       -5.2083759399       -2.0276579832
 H         -1.3301487898       -4.8815868224       -0.3545300679
 H          1.5484860227       -5.7901471731       -1.0845732719
 H          0.9244137210       -5.4718444133        0.5882116907
 H          1.0074507062       -3.4058103016       -1.7299008082
