  62
        -98.94414449
 C          2.5141297563        1.1554898131       -0.0720724847
 C          3.2183726186        0.3952915170        0.8913021683
 C          4.0260050888       -0.7117401348        0.3674770090
 C          4.0657143916       -0.9393870669       -0.9584097173
 C          4.8656187114       -2.0110301733       -1.6484893091
 C          4.1715954928       -3.3792755017       -1.6915218209
 C          4.1148289057       -4.1212720479       -0.3556318922
 H          3.7996471967       -5.1444306351       -0.5694755433
 H          5.1157618703       -4.1719745874        0.0738522580
 C          3.1454168715       -3.5104792175        0.6661742892
 H          2.4544652232       -2.8363087146        0.1538051751
 H          2.5428088715       -4.3024591688        1.1171037802
 C          3.8230845046       -2.7515164325        1.8074534202
 H          4.4176536822       -3.4451041365        2.4060659815
 H          3.0447006157       -2.3346874254        2.4525610099
 C          4.7280617050       -1.5993683666        1.3505845297
 H          4.9799684510       -0.9943118892        2.2250331498
 H          5.6485562032       -1.9926998117        0.9200398975
 H          3.1583929932       -3.2449767759       -2.0773710458
 H          4.7191567553       -4.0001805007       -2.4040945326
 H          5.0185339732       -1.6707560429       -2.6748083421
 H          5.8383358516       -2.1100274376       -1.1661022549
 O          3.3735217529       -0.1850501583       -1.8523465164
 C          2.5622825536        0.8612257410       -1.4350176057
 O          1.9559228368        1.4381069054       -2.3562005419
 H          0.3024627262        0.0547337866        0.8100214330
 C         -0.3344113686        0.8001743334        0.3480714576
 C          0.1985386840        2.0479222088        0.0459440656
 C         -0.6346292069        2.9992573659       -0.5269564380
 C         -1.9561484080        2.6958763762       -0.8073279824
 C         -2.4756951599        1.4472692228       -0.5215419559
 C         -1.6558659280        0.4921157576        0.0659640949
 N         -2.1746551626       -0.7829901760        0.3572104154
 S         -3.5793382245       -0.8629825114        1.2774055937
 O         -3.6971510782        0.2755495176        2.1588435766
 O         -3.5438389129       -2.1642119765        1.9087028594
 C         -4.8871589098       -0.8393306563        0.0700085631
 C         -5.8668323701        0.1320133130        0.1348815925
 C         -6.8804441882        0.1250798241       -0.8108237921
 C         -6.8963737956       -0.8479974611       -1.7983201541
 C         -5.9062873459       -1.8181818131       -1.8477558792
 C         -4.8909584318       -1.8177142870       -0.9047884671
 H         -4.1056610184       -2.5552136297       -0.9054511617
 H         -5.9220185279       -2.5733382496       -2.6170752176
 H         -7.6851267512       -0.8508698368       -2.5339337646
 H         -7.6513584413        0.8778587962       -0.7738698756
 H         -5.8100710370        0.8714079795        0.9177408026
 H         -1.4846537784       -1.4249567859        0.7200673138
 H         -3.5018068553        1.2058837231       -0.7456188763
 H         -2.5897327185        3.4433921689       -1.2596158173
 H         -0.2487564369        3.9781506191       -0.7587018401
 C          1.6443346521        2.3084737738        0.3931796850
 H          1.7304648198        2.3138577440        1.4907464464
 C          2.1729753434        3.6225935576       -0.1414738374
 C          1.9609518088        4.8914966245        0.6272376424
 C          3.3251357181        4.2755989096        0.5594820609
 H          4.0837116159        4.7604444631       -0.0363760514
 H          3.7111342668        3.7852152148        1.4414489301
 H          1.4219174118        4.8266624818        1.5604264137
 H          1.7849915683        5.8040472158        0.0780154966
 H          2.1557665468        3.6676872719       -1.2244617064
 O          3.1712654440        0.6285447421        2.1302210224
