  62
        -98.94453197
 C          2.0819058209        0.2349952498       -0.1774817892
 C          3.0445509407        0.9106485893        0.6110251015
 C          4.2690484608        0.1599180093        0.9076636411
 C          4.4013453611       -1.1030566503        0.4628913300
 C          5.5801388812       -2.0063764103        0.7047726994
 C          6.7395760313       -1.7959938193       -0.2788658603
 C          7.5417209910       -0.5101092093       -0.0744012591
 H          7.8549558409       -0.4407878101        0.9677893610
 H          8.4455395511       -0.5969842286       -0.6807636490
 C          6.7986022608        0.7712078209       -0.4775344881
 H          5.9486531710        0.5142337513       -1.1139184084
 H          7.4616066308        1.4054062715       -1.0703338874
 C          6.2998371305        1.6111199798        0.6982965226
 H          5.7577366604        2.4719042401        0.2987131032
 H          7.1523695804        1.9856130695        1.2691956230
 C          5.3621269105        0.8628264588        1.6546768318
 H          5.9279499106        0.1540560784        2.2588669313
 H          4.8940969403        1.5939829682        2.3183680924
 H          6.3428411214       -1.8204976285       -1.2964891303
 H          7.4190304514       -2.6441595892       -0.1671637009
 H          5.2151154414       -3.0296921603        0.5932127085
 H          5.9393754810       -1.8755326411        1.7259398896
 O          3.4384882213       -1.7286176699       -0.2650895007
 C          2.2652253412       -1.0757963598       -0.6173405303
 O          1.4868921314       -1.7609667593       -1.3077842909
 O          2.8846833004        2.0809850989        1.0492034325
 C          0.7960135808        0.9601547499       -0.5348667187
 C         -0.3708490291        0.2295521791        0.0805377605
 C         -0.4319863193        0.1275463479        1.4685292604
 C         -1.4636589393       -0.5538161528        2.0840558097
 C         -2.4603518791       -1.1484948023        1.3295023191
 C         -2.4129245189       -1.0464325111       -0.0536630409
 C         -1.3795958789       -0.3509086704       -0.6706322001
 H         -1.3557542188       -0.2888986295       -1.7470176201
 N         -3.4248550087       -1.6410916907       -0.8245294015
 S         -5.0131001088       -1.4275751514       -0.3485002715
 O         -5.3267461988       -2.3286396623        0.7322057377
 O         -5.7946142186       -1.5903830105       -1.5541132218
 C         -5.0944902492        0.2597660281        0.2262646699
 C         -4.8388189292        1.2671522390       -0.6831644092
 C         -4.8574651195        2.5824551386       -0.2495308381
 C         -5.1267207698        2.8668228274        1.0807117021
 C         -5.3849858397        1.8447622766        1.9804483712
 C         -5.3676739894        0.5268650870        1.5519977001
 H         -5.5626480493       -0.2973427436        2.2185051194
 H         -5.5958720799        2.0690264057        3.0136624414
 H         -5.1361060600        3.8917104271        1.4167270930
 H         -4.6591967396        3.3796353492       -0.9478906374
 H         -4.6397292890        1.0121292799       -1.7115597394
 H         -3.3122679986       -1.5197392298       -1.8197540114
 H         -3.2631946990       -1.7005539329        1.7903464285
 H         -1.4925635794       -0.6286207137        3.1604875096
 H          0.3507027605        0.5854867476        2.0575908509
 H          0.8756949206        1.9436585995       -0.0500348179
 C          0.6860830310        1.1619190511       -2.0307595786
 C         -0.1833833492        2.2550965414       -2.5743295777
 C          1.3084297208        2.3775616818       -2.6467864674
 H          1.7901435210        2.2783010327       -3.6080967575
 H          1.7990259606        3.0752311713       -1.9840129168
 H         -0.7268061090        2.0769150721       -3.4899886580
 H         -0.7066407394        2.8743183407       -1.8619636173
 H          0.7543155312        0.2341001216       -2.5875481793
