  62
        -98.94486781
 C         -1.9262436603       -0.1861333502        0.0158863496
 C         -2.9446722802       -1.0616321711        0.4635415080
 C         -4.2504459103       -0.4456324118        0.7322439990
 C         -4.3972563305        0.8815612485        0.5652390714
 C         -5.6815400006        1.6325684780        0.7632685127
 C         -6.4833533805        1.7206968602       -0.5427022572
 C         -6.6454881903        0.3803077215       -1.2595556496
 H         -7.2530398003        0.5590149130       -2.1494170493
 H         -5.6659657502        0.0395075622       -1.6027797302
 C         -7.2954135802       -0.7200411001       -0.4090754916
 H         -7.8134465803       -0.2740578717        0.4406851391
 H         -8.0466548101       -1.2320160391       -1.0141230026
 C         -6.3241101301       -1.7895181809        0.0938908565
 H         -5.7351887900       -2.1717274893       -0.7436530941
 H         -6.9111951600       -2.6230938916        0.4883941550
 C         -5.3584917802       -1.3467810727        1.2003944774
 H         -5.9191225003       -0.8788607942        2.0121379382
 H         -4.8692493601       -2.2432847134        1.5923092858
 H         -7.4670927406        2.1359209797       -0.3161319865
 H         -5.9707378605        2.4100987115       -1.2176230160
 H         -6.2717508206        1.1360540366        1.5310958317
 H         -5.4398588507        2.6423242174        1.0994064445
 O         -3.3910105805        1.6932476094        0.1509560229
 C         -2.1333098905        1.1841735201       -0.1415798979
 O         -1.3105444405        2.0389712808       -0.5201672063
 H          1.7186187897        0.7035098320       -0.9462117985
 C          1.5607897996        0.5991973501        0.1135221413
 C          0.4723518997       -0.1023473710        0.6051405899
 C          0.3026853896       -0.1899224634        1.9857225498
 C          1.1888217295        0.4241894851        2.8476067709
 C          2.2723911794        1.1294859761        2.3521528223
 C          2.4549717595        1.2188356386        0.9782806024
 N          3.5364775594        1.9432511997        0.4510043738
 S          4.4721721796        1.3044237420       -0.7769029873
 O          5.6576918495        2.1325304322       -0.7963118558
 O          3.7211607797        1.2370516541       -2.0036202775
 C          4.8864906497       -0.3335862390       -0.2063690602
 C          4.1025392899       -1.4060091084       -0.5802552722
 C          4.3966866800       -2.6595542993       -0.0668466044
 C          5.4619721900       -2.8181543807        0.8057962654
 C          6.2428296498       -1.7308944513        1.1682251574
 C          5.9511680797       -0.4746824204        0.6626900196
 H          6.5377961496        0.3950157992        0.9108153712
 H          7.0737579498       -1.8583871324        1.8432066072
 H          5.6858397101       -3.7956688014        1.2029350037
 H          3.7913902901       -3.5061819088       -0.3492007959
 H          3.2858727299       -1.2455246273       -1.2642525319
 H          4.1184204993        2.3859884585        1.1470312046
 H          2.9623197893        1.6183584650        3.0231267432
 H          1.0387842994        0.3534050932        3.9143231908
 H         -0.5463509504       -0.7379569742        2.3710246487
 C         -0.5522703802       -0.7599097495       -0.2848935713
 H         -0.6171754401       -1.8227626800       -0.0088741532
 C         -0.2416582601       -0.6605526568       -1.7625477611
 C          0.6878865900       -1.6473948056       -2.4009796828
 C         -0.7812106599       -1.7045693752       -2.6919271530
 H         -1.1293507699       -1.3965144935       -3.6664570525
 H         -1.3572027899       -2.5076000361       -2.2554991745
 H          1.3555178900       -1.2997806941       -3.1757679021
 H          1.1008952901       -2.4204299266       -1.7703117642
 H         -0.2264710102        0.3621743038       -2.1231954593
 O         -2.7668099901       -2.2972528214        0.6370508658
