  62
        -98.94626144
 C         -2.3889176213       -0.5245333702       -0.0112064932
 C         -1.3938637315       -0.7242108478        0.9732045935
 C         -0.7067615420       -2.0211361154        0.9482152988
 C         -1.0498038537       -2.9252000482        0.0130200789
 C         -0.3487425045       -4.2312930007       -0.2284583874
 C          0.9563005760       -3.9740439897       -1.0107237912
 C          2.2329159670       -4.3107232896       -0.2392221827
 H          2.3575460054       -5.3958321060       -0.2126709587
 H          3.0689595469       -3.8935475607       -0.8052405783
 C          2.2979418026       -3.7924325068        1.2008049286
 H          1.7319946478       -4.4579401412        1.8548381126
 H          3.3415930620       -3.8571462339        1.5156088902
 C          1.8065354272       -2.3547760225        1.4143451966
 H          1.8717478175       -1.7854120381        0.4860236136
 H          2.4694352730       -1.8683764369        2.1335189369
 C          0.3727544564       -2.2486223790        1.9693070496
 H          0.1389477375       -3.1386895348        2.5599236471
 H          0.3184693749       -1.3836540335        2.6364498281
 H          0.9496144314       -4.5586342855       -1.9326272641
 H          0.9793388735       -2.9225515486       -1.3086135026
 H         -0.1384057442       -4.7213460190        0.7196653030
 H         -1.0214197790       -4.8632030899       -0.8091118554
 O         -2.0377239527       -2.7126042461       -0.8951039977
 C         -2.7077138927       -1.5012102781       -0.9513419926
 O         -3.5546877657       -1.4192172655       -1.8659870295
 H         -0.8654297338        0.6679757108       -1.6289527913
 C         -0.9112175805        1.6131433322       -1.1075971855
 C         -1.9936726193        1.8933849861       -0.2830452976
 C         -2.0346668828        3.1255917887        0.3570908540
 C         -0.9999772011        4.0321637148        0.1992823725
 C          0.1042315002        3.7222613742       -0.5737144545
 C          0.1481310411        2.4967974495       -1.2286938383
 N          1.2548925885        2.1196584504       -2.0170571732
 S          2.1084821677        0.7472118993       -1.5725161477
 O          3.1852410971        0.6530341487       -2.5354504919
 O          1.2240951072       -0.3868704329       -1.4985267612
 C          2.7933110382        1.1362018611        0.0287547300
 C          4.1330849027        1.4659136657        0.1075446222
 C          4.6683863094        1.8178637875        1.3356275819
 C          3.8555571625        1.8434574402        2.4591131680
 C          2.5124937101        1.5155882276        2.3611613655
 C          1.9695002442        1.1580900918        1.1361649509
 H          0.9279963284        0.8916015718        1.0480677252
 H          1.8718599477        1.5321125501        3.2284083233
 H          4.2698354280        2.1190008146        3.4161528544
 H          5.7134905404        2.0713321981        1.4122360507
 H          4.7249471783        1.4295333293       -0.7928029957
 H          1.9100122854        2.8711863012       -2.1845881058
 H          0.9249214947        4.4170114706       -0.6707457789
 H         -1.0446294164        4.9851336064        0.7039484526
 H         -2.8732611375        3.3727061017        0.9874031425
 C         -3.0589180897        0.8331378971       -0.1271561033
 H         -3.6589691151        0.8025199855       -1.0487301271
 C         -3.9799282526        1.0765795427        1.0506094383
 C         -5.2104696275        1.9166489009        0.8899304251
 C         -5.3323428401        0.4322192215        1.0535095266
 H         -5.7166611592        0.0428691903        1.9842210461
 H         -5.5978872991       -0.1607978998        0.1900911972
 H         -5.5162537364        2.5464564141        1.7117377295
 H         -5.4079529695        2.3345272868       -0.0857280440
 H         -3.4450283951        1.1220436816        1.9921778870
 O         -1.0820440665        0.1519434927        1.8238823107
