  62
        -98.94617534
 C          1.7674118557        1.1602098871       -0.2921297212
 C          3.1127580970        1.3108642308        0.1231064842
 C          4.0419404852        0.2707743933       -0.3320854304
 C          3.5941487932       -0.7291771417       -1.1132658314
 C          4.4230857624       -1.8508797623       -1.6776998916
 C          4.6191504849       -3.0280815780       -0.7124583727
 C          5.5722462730       -2.7608178712        0.4530749462
 H          6.5150168080       -2.3709895323        0.0679982505
 H          5.7851171322       -3.7244094678        0.9202443570
 C          5.0159091030       -1.8076294572        1.5200790636
 H          5.2056566043       -2.2219177919        2.5128213353
 H          3.9320514722       -1.7286235921        1.4082858573
 C          5.6199222482       -0.4034653041        1.4932339342
 H          6.6840393516       -0.4574285891        1.7334770302
 H          5.1310266984        0.1950301431        2.2662373559
 C          5.4585301434        0.3291434220        0.1545127362
 H          6.1345951626       -0.0924044429       -0.5890122486
 H          5.7154491383        1.3804992543        0.3054475050
 H          5.0159290069       -3.8633972427       -1.2939868973
 H          3.6431269584       -3.3271968957       -0.3236878929
 H          3.8934920155       -2.2140884984       -2.5610981615
 H          5.3952515019       -1.4678982805       -1.9891124834
 O          2.2963609826       -0.8277332123       -1.5057144958
 C          1.3490958788        0.0973627519       -1.0911227357
 O          0.1962018213       -0.1359405156       -1.4999069661
 H         -2.0089303252        2.0325558630       -0.2298072793
 C         -1.6648216065        1.5296079744        0.6577715594
 C         -0.3196551913        1.5089000478        0.9892229198
 C          0.0726939583        0.8345547429        2.1442230430
 C         -0.8551338662        0.1945819777        2.9415025700
 C         -2.1967743914        0.2058462948        2.5990417178
 C         -2.5994528842        0.8759127457        1.4514709580
 N         -3.9598806495        0.9236843873        1.0871152690
 S         -4.4212322560        0.3082297841       -0.4021921342
 O         -3.7899243144        1.0527358070       -1.4589469009
 O         -5.8681213574        0.3374420338       -0.3759161299
 C         -3.8629709661       -1.3856369739       -0.3667482508
 C         -4.7589516700       -2.3605153511        0.0299915553
 C         -4.3237557679       -3.6708833436        0.1372704886
 C         -3.0011204857       -3.9817610824       -0.1418131332
 C         -2.1155083180       -2.9905701179       -0.5341564404
 C         -2.5436069329       -1.6762127578       -0.6489429069
 H         -1.8648829806       -0.8963291878       -0.9574323722
 H         -1.0850134338       -3.2215172857       -0.7543438058
 H         -2.6581064765       -5.0008375673       -0.0549449859
 H         -5.0125623228       -4.4431744058        0.4397399407
 H         -5.7780988847       -2.0727733270        0.2324833214
 H         -4.5784723779        0.5550931115        1.7968272957
 H         -2.9256511038       -0.2956875117        3.2176703765
 H         -0.5339805114       -0.3210739119        3.8338037022
 H          1.1218263544        0.8234762725        2.4070583435
 C          0.7415548598        2.1853785912        0.1575006381
 H          1.2925786273        2.8807362407        0.8080683318
 C          0.1951068086        2.9584717084       -1.0231205524
 C         -0.3648195635        4.3334615768       -0.8196295143
 C          0.9472900626        4.1545140532       -1.5210410466
 H          0.9927242899        4.3283713418       -2.5857216561
 H          1.8504916078        4.4275940707       -0.9949060847
 H         -0.3533867294        4.7336161280        0.1830008763
 H         -1.2248015986        4.6291423006       -1.4016475863
 H         -0.2765045907        2.3231104998       -1.7649918650
 O          3.5151632885        2.2654381520        0.8402528706
