  62
        -98.94459680
 C         -1.6096327108       -1.4622304765        0.1884235020
 C         -1.7974727758       -0.3974357492        1.1091197869
 C         -3.0387545927        0.3719768264        0.9748373810
 C         -3.9024369884        0.0704407590       -0.0120466844
 C         -5.2396825724        0.7179912292       -0.2524076690
 C         -5.1782150044        2.0341215534       -1.0393189640
 C         -4.6246618473        3.2292998246       -0.2628333216
 H         -4.8397609044        4.1230168027       -0.8517222289
 H         -5.1595538288        3.3262461842        0.6824350278
 C         -3.1141276758        3.1620332999        0.0011100100
 H         -2.6590791864        4.1262620178       -0.2361742559
 H         -2.6687086959        2.4187796664       -0.6646481984
 C         -2.7390355704        2.8260504506        1.4444397700
 H         -1.6494386031        2.7891714502        1.5242431523
 H         -3.0937278606        3.6178325636        2.1080575620
 C         -3.2950871844        1.4866218104        1.9448100909
 H         -2.7891453242        1.2340670343        2.8802208351
 H         -4.3640934525        1.5746485073        2.1406354414
 H         -4.5819501308        1.8756848227       -1.9406391555
 H         -6.1971564794        2.2722114941       -1.3528654375
 H         -5.7370213471        0.8887285325        0.7031781843
 H         -5.8298255839        0.0010065051       -0.8272254917
 O         -3.6576389269       -0.9135633013       -0.9139962085
 C         -2.5194688606       -1.7059690859       -0.8417158379
 O         -2.4601645736       -2.5644584147       -1.7425332992
 O         -0.9717003192       -0.1194557848        2.0206569883
 C         -0.3862035476       -2.3376860479        0.4016890910
 C          0.7610387919       -1.9569350681       -0.5025870078
 C          0.6866019066       -2.1044680585       -1.8840473604
 C          1.7657441570       -1.7683715961       -2.6804411000
 C          2.9285819550       -1.2654050954       -2.1220099493
 C          3.0094543587       -1.1063871792       -0.7445423732
 C          1.9315073188       -1.4630105957        0.0544777748
 H          2.0120534262       -1.3357743083        1.1236392796
 N          4.1711474287       -0.5913984371       -0.1405417208
 S          4.0033298254        0.6812668822        0.9389145358
 O          5.3316036469        1.2445145154        1.0447279136
 O          3.4140812270        0.2142857989        2.1659197539
 C          2.9282314630        1.8156552536        0.0816593247
 C          1.5591907390        1.7405690768        0.2414535794
 C          0.7562780479        2.5607712259       -0.5363599186
 C          1.3252947210        3.4383766224       -1.4452118567
 C          2.7031964360        3.5089055080       -1.5844610594
 C          3.5121333859        2.6841397481       -0.8213026509
 H          4.5875347675        2.7059371240       -0.8950011970
 H          3.1451741193        4.1965531471       -2.2872822147
 H          0.6894176707        4.0700325522       -2.0452073504
 H         -0.3146558685        2.5005518027       -0.4269872085
 H          1.1308107340        1.0596204687        0.9607526499
 H          4.9185646315       -0.3967479247       -0.7921085972
 H          3.7677133811       -0.9997697452       -2.7468422162
 H          1.6987213644       -1.8923187815       -3.7506517818
 H         -0.2262093548       -2.4763088788       -2.3233482081
 H         -0.0680531645       -2.1318882947        1.4335533718
 C         -0.6852127958       -3.8202683265        0.2849103425
 C          0.2388333473       -4.7976917951        0.9442258680
 C         -1.1364858968       -4.5751852949        1.4971149110
 H         -1.8761295008       -5.3520245805        1.3741833214
 H         -1.2310822727       -4.0259381836        2.4228932208
 H          0.4462407712       -5.7297978958        0.4416132703
 H          1.0776716878       -4.3991779428        1.4954682797
 H         -1.1211485864       -4.1001088558       -0.6648925380
