  62
        -98.94044225
 C         -1.4742008728       -1.5592617378       -0.0951645480
 C         -1.4792331375       -0.1772856601        0.2038511878
 C         -2.7889673997        0.4191292067        0.5271153128
 C         -3.8885516188       -0.3569032925        0.5211770127
 C         -5.3365321356       -0.0343995166        0.8273076048
 C         -5.8094887899        1.4140550957        0.9203373954
 C         -5.7872359109        2.1821108140       -0.4012112178
 H         -6.0437664405        3.2235275599       -0.1947575669
 H         -6.5633837588        1.7723912329       -1.0527502175
 C         -4.4700181920        2.1377931847       -1.1720213802
 H         -4.6036733238        2.7127594379       -2.0925392979
 H         -4.2519668770        1.1088513971       -1.4653933655
 C         -3.2603674639        2.7109400696       -0.4363413351
 H         -3.4775446421        3.7308742665       -0.1132829889
 H         -2.4324657282        2.7507874793       -1.1487997751
 C         -2.7828760303        1.8992398781        0.7795627478
 H         -3.3595475061        2.1414543428        1.6686801786
 H         -1.7404027638        2.1657333017        0.9774145669
 H         -5.2453800778        1.9454975586        1.6809584450
 H         -6.8473552527        1.3803334047        1.2630970506
 H         -5.5579485554       -0.5325433903        1.7777248015
 H         -5.9250760258       -0.5547676789        0.0648210010
 O         -3.8260884149       -1.6953467646        0.2497869850
 C         -2.6353304696       -2.3264698352       -0.0653901970
 O         -2.7418529678       -3.5497064578       -0.2889403411
 O         -0.4410245915        0.5305350293        0.2075192513
 C         -0.1681478228       -2.2364828515       -0.4694003017
 C          0.8660154122       -1.9505917053        0.5908015908
 C          0.5770865982       -2.2772224996        1.9137837198
 C          1.4775410252       -1.9978094942        2.9227243384
 C          2.6789801169       -1.3720258122        2.6375565219
 C          2.9805461151       -1.0520420863        1.3198877953
 C          2.0848002598       -1.3583227220        0.3043099205
 H          2.3551629248       -1.1165070099       -0.7088409614
 N          4.1925073561       -0.4282976389        0.9966605414
 S          4.3105583674        0.6157295579       -0.2996367889
 O          4.3448370625       -0.1295366135       -1.5340363751
 O          5.4979525743        1.3939465797       -0.0104828393
 C          2.8827299510        1.6833359852       -0.2611598730
 C          2.5974613024        2.3671904709        0.9026697588
 C          1.5179191910        3.2335097101        0.9218508493
 C          0.7492279655        3.4056010768       -0.2177998973
 C          1.0496213289        2.7128201315       -1.3783229446
 C          2.1253751677        1.8416596537       -1.4021356957
 H          2.3880028509        1.2769912618       -2.2832956978
 H          0.4437023530        2.8396534782       -2.2619303604
 H         -0.0947599212        4.0777336406       -0.1995712583
 H          1.2740887455        3.7670645422        1.8268717479
 H          3.2156395679        2.2185984109        1.7734907190
 H          4.7452141623       -0.1218662141        1.7829906291
 H          3.3767718107       -1.1365311598        3.4265142396
 H          1.2385524012       -2.2565149499        3.9433918335
 H         -0.3717982893       -2.7457786741        2.1390171467
 H         -0.3701821516       -3.3172076628       -0.4816989735
 C          0.2561312296       -1.8003923113       -1.8563457425
 C          1.1496496420       -2.6749420502       -2.6818521109
 C         -0.2938004881       -2.5146391723       -3.0523454789
 H         -0.5410959332       -1.9367701608       -3.9303053308
 H         -0.9652289860       -3.3415247552       -2.8711682096
 H          1.9008246063       -2.2079699554       -3.3014977753
 H          1.4615595799       -3.6152708098       -2.2527253589
 H          0.3831736924       -0.7259037645       -1.9322061084
