  62
        -98.94330426
 C         -1.8994118404       -0.5746258716       -0.7676811786
 C         -2.2582637704       -0.1146059799        0.5224554808
 C         -3.6933274104       -0.1619730295        0.8395196509
 C         -4.5560081904       -0.6432383707       -0.0742273885
 C         -6.0449177004       -0.7099640705        0.1027946715
 C         -6.7259627104        0.5613369488       -0.4225174602
 C         -6.0917598804        1.8555776095        0.0867159681
 H         -5.0810966704        1.9402246390       -0.3189882019
 H         -6.6729721904        2.6850566990       -0.3218879230
 C         -6.0347961504        1.9751365815        1.6160660880
 H         -6.3557598404        2.9794101819        1.9006893267
 H         -6.7344091604        1.2717314721        2.0690296689
 C         -4.6437261304        1.7649236223        2.2171924983
 H         -3.9215119704        2.4011183616        1.6997055075
 H         -4.6734082605        2.0857202637        3.2618758979
 C         -4.1175511204        0.3241372323        2.1968612502
 H         -4.8624810505       -0.3457725471        2.6312380911
 H         -3.2187145405        0.2889533031        2.8194961603
 H         -6.6700626503        0.5583203774       -1.5135664802
 H         -7.7789611004        0.5319410992       -0.1364297402
 H         -6.4190573004       -1.5692553312       -0.4564372974
 H         -6.2739896004       -0.8481702491        1.1576799117
 O         -4.1698937204       -1.0905914123       -1.2970667279
 C         -2.8378459503       -1.0614927128       -1.6765512779
 O         -2.6191110303       -1.4970112043       -2.8258207174
 O         -1.4260842804        0.3085236212        1.3658278403
 C         -0.4435168004       -0.5608492822       -1.1934230685
 C          0.4009250296       -1.3847831210       -0.2508662574
 C         -0.0973370304       -2.5887358003        0.2401754741
 C          0.6535557796       -3.3684173292        1.0976056352
 C          1.9290952696       -2.9776978287        1.4649289947
 C          2.4450489896       -1.7891050594        0.9654866632
 C          1.6801289196       -0.9978340405        0.1187313921
 H          2.0996030496       -0.0788649610       -0.2557356491
 N          3.7336038596       -1.3625177489        1.3196073426
 S          4.7356127696       -0.6937963704        0.1585564618
 O          4.4867862696       -1.2550055622       -1.1486954775
 O          6.0731447096       -0.8765641198        0.6823107021
 C          4.3571162796        1.0455549796        0.1653019095
 C          4.0728861196        1.6698457712        1.3637155787
 C          3.8291518496        3.0339740412        1.3651453269
 C          3.8829543296        3.7490540196        0.1781922059
 C          4.1758693197        3.1085213880       -1.0157438432
 C          4.4152733097        1.7429919780       -1.0249383414
 H          4.6339088597        1.2030197868       -1.9324555207
 H          4.2170702097        3.6653414468       -1.9385996740
 H          3.6939113696        4.8110049896        0.1831545045
 H          3.5973824796        3.5349963924        2.2912721862
 H          4.0365909496        1.0848362523        2.2674294994
 H          4.2375482296       -1.9922944181        1.9269326635
 H          2.5195655495       -3.5877106378        2.1317360055
 H          0.2463815196       -4.2935423387        1.4774629264
 H         -1.0893530704       -2.9033707307       -0.0549252555
 H         -0.4093487803       -1.0437035235       -2.1819401179
 C          0.0376272197        0.8693397076       -1.3340049404
 C          1.0766896397        1.2282206063       -2.3518829108
 C         -0.3486936003        1.6416872360       -2.5583417714
 H         -0.6039049203        2.6851971962       -2.4519705828
 H         -0.9312604703        1.1229574750       -3.3062013808
 H          1.7983957497        1.9907139666       -2.1002391118
 H          1.4722923197        0.4332231555       -2.9665559798
 H          0.0440090696        1.3983074589       -0.3877624111
