  62
        -98.93838312
 C         -1.6111013329       -1.5146855803        0.5577305559
 C         -2.3294437791       -1.0525509898       -0.5696233481
 C         -3.2036264185        0.1190176866       -0.3535435436
 C         -3.2172142233        0.7145972109        0.8509877978
 C         -4.0012988239        1.9251165473        1.2791548189
 C         -3.1905184306        3.2155376942        1.0715427644
 C         -3.3489201870        3.8511080873       -0.3084707887
 H         -4.3608673297        4.2499057428       -0.4052094391
 H         -2.6624666033        4.6995304590       -0.3611473168
 C         -3.0756195052        2.9118425589       -1.4859718725
 H         -2.8408532861        3.5234023505       -2.3591985243
 H         -2.1999431771        2.2971536614       -1.2709341601
 C         -4.2684874835        2.0044721362       -1.8199311434
 H         -5.1496183909        2.3512949992       -1.2807999617
 H         -4.5046111572        2.0895868070       -2.8828795086
 C         -4.0422631088        0.5141030573       -1.5395396169
 H         -5.0146382552        0.0166562351       -1.4524782296
 H         -3.5383482570        0.0570606563       -2.3972349718
 H         -2.1387263564        2.9829989983        1.2555721852
 H         -3.5015922067        3.9475402424        1.8195561347
 H         -4.9533088332        1.9709978861        0.7586958935
 H         -4.1935800017        1.8025660123        2.3471729379
 O         -2.4354439018        0.2894794479        1.8837803975
 C         -1.6316481837       -0.8250380188        1.7715983270
 O         -0.9873997671       -1.1018333123        2.8050806536
 H          1.3511071858       -1.5213187977        1.5827826920
 C          1.5354762903       -1.7215854926        0.5349197994
 C          0.5593276091       -2.3798463226       -0.2039728005
 C          0.7895279511       -2.6129602343       -1.5533366940
 C          1.9743215635       -2.2006694276       -2.1397421466
 C          2.9501873762       -1.5580882979       -1.3990683097
 C          2.7241283390       -1.3122601614       -0.0500447380
 N          3.7109325571       -0.6687208403        0.7244170970
 S          4.2692915802        0.8280617084        0.2303483303
 O          4.9792356460        0.6795045288       -1.0142754967
 O          5.0316924480        1.3371499324        1.3467249671
 C          2.8100035909        1.8221919268       -0.0147860384
 C          2.3394889126        2.5754955200        1.0422250178
 C          1.1902274424        3.3292849048        0.8694983914
 C          0.5290471554        3.3067963830       -0.3487695453
 C          1.0057243996        2.5334232035       -1.3958157313
 C          2.1589515315        1.7831427504       -1.2316206565
 H          2.5656170422        1.1805592384       -2.0269043677
 H          0.4831651482        2.5128751392       -2.3388793477
 H         -0.3621079622        3.8981315897       -0.4856892697
 H          0.8144627551        3.9299066114        1.6826547353
 H          2.8893231000        2.5716045927        1.9698432999
 H          3.4787683147       -0.6331042270        1.7070496246
 H          3.8773149696       -1.2348901444       -1.8443343451
 H          2.1426889985       -2.3872765948       -3.1896297230
 H          0.0328803798       -3.0992621388       -2.1463172373
 C         -0.7248498245       -2.7505906150        0.4970448856
 H         -0.4744131607       -2.9848191537        1.5408886311
 C         -1.4293160309       -3.9462352376       -0.1066350808
 C         -0.8407121011       -5.3098850869        0.0892876713
 C         -2.1040896824       -4.9295150829        0.7998082339
 H         -3.0329711639       -5.3746080946        0.4760635869
 H         -2.0569083827       -4.7464854855        1.8637328761
 H         -0.9001806772       -6.0196347864       -0.7213995410
 H          0.0659905258       -5.3826149345        0.6711243620
 H         -1.9140230934       -3.7335428462       -1.0501359710
 O         -2.2649880083       -1.5849624548       -1.7077213676
