  62
        -98.94097487
 C          2.3944647999        1.0997887898       -0.2700622604
 C          3.7190901799        1.1388767599        0.2290442695
 C          4.6623327498        0.1880010797       -0.3726090303
 C          4.2290999797       -0.6477462106       -1.3342565799
 C          5.0674398496       -1.7066579609       -1.9887215797
 C          4.9574429396       -3.0434400306       -1.2419630192
 C          5.1604499797       -2.9267385301        0.2687703808
 H          4.3378419298       -2.3474038300        0.6950271506
 H          5.0903168797       -3.9343388500        0.6844573011
 C          6.4961545698       -2.2939553101        0.6837569404
 H          7.1974428997       -2.3287482004       -0.1506961496
 H          6.9265615298       -2.8859455298        1.4941895906
 C          6.3857289699       -0.8557518599        1.1930986600
 H          5.6160019400       -0.7997065296        1.9670689300
 H          7.3373801399       -0.5857828898        1.6585022998
 C          6.0787183399        0.2062731298        0.1298239296
 H          6.2199473000        1.1879995199        0.5912119693
 H          6.7830207298        0.1113977895       -0.6989471204
 H          5.6948416396       -3.7326024608       -1.6575855190
 H          3.9634221796       -3.4599689606       -1.4215189490
 H          4.7129490296       -1.8425175312       -3.0117819196
 H          6.1043623097       -1.3773029709       -2.0139921698
 O          2.9510366197       -0.6527276307       -1.7918961399
 C          1.9989007398        0.2107546595       -1.2692488601
 O          0.8676634097        0.0933359394       -1.7784417000
 H         -1.3072665901        1.7444601400       -0.3056466904
 C         -1.0120464300        1.1683937303        0.5570273998
 C          0.2959326700        1.2232197104        1.0075896397
 C          0.6528046500        0.4525880507        2.1118376399
 C         -0.2770190900       -0.3498202490        2.7431639603
 C         -1.5844797200       -0.4018117291        2.2902296104
 C         -1.9495604800        0.3580830105        1.1883593701
 N         -3.2804163901        0.3378702004        0.7276857302
 S         -4.0764316102       -1.1497231795        0.6503380508
 O         -4.4659432301       -1.5289670191        1.9858699509
 O         -3.2799039303       -2.1164829598       -0.0725607789
 C         -5.5207806202       -0.6961639298       -0.2894225093
 C         -5.5070669703       -0.8458593802       -1.6632080692
 C         -6.6243095203       -0.4646357804       -2.3896853293
 C         -7.7282701203        0.0595589699       -1.7339543794
 C         -7.7266552602        0.2039291803       -0.3545336794
 C         -6.6134044801       -0.1761118795        0.3779498706
 H         -6.5689043800       -0.0908895291        1.4509979406
 H         -8.5877285501        0.6099299605        0.1512984005
 H         -8.5959918603        0.3548777497       -2.3024148994
 H         -6.6290323804       -0.5781547908       -3.4619020192
 H         -4.6301865703       -1.2657105804       -2.1305673091
 H         -3.3732875401        0.8248773102       -0.1540585999
 H         -2.3168624900       -1.0322669989        2.7674398906
 H          0.0150248501       -0.9444919088        3.5960613104
 H          1.6759301801        0.4860905708        2.4615018298
 C          1.3647415000        2.0429842701        0.3281951393
 H          1.9036915501        2.6080960303        1.1017957291
 C          0.8424550500        3.0137750098       -0.7085629409
 C          0.1905564001        4.2900219299       -0.2696679213
 C          1.5488508600        4.3208305297       -0.9015001814
 H          1.6442334200        4.7107272793       -1.9038036416
 H          2.4036144901        4.5217964798       -0.2725762916
 H         -0.6474604700        4.6645541098       -0.8375896314
 H          0.1206203301        4.4725518803        0.7918761386
 H          0.4610348899        2.5204936295       -1.5952512708
 O          4.0934318400        1.9310713402        1.1348498992
