  62
        -98.94517482
 C          0.8595598308        1.1281516178        0.2530401529
 C          1.6248474327        0.4836051248        1.2574920858
 C          2.4874107173       -0.6138548247        0.8056353987
 C          2.4629902668       -0.9906944771       -0.4850301443
 C          3.3167143150       -2.0601931893       -1.1111294237
 C          4.7189931024       -1.5774500378       -1.5086957798
 C          5.6841751085       -1.3442364019       -0.3455709152
 H          5.7049333386       -2.2284848460        0.2922723692
 H          6.6814011373       -1.2297225619       -0.7751417951
 C          5.3696497352       -0.1038083049        0.5023897087
 H          4.6999905327        0.5571553623       -0.0530817598
 H          6.2897998824        0.4557330694        0.6855254826
 C          4.7468487867       -0.4077809549        1.8652467516
 H          5.4621051784       -0.9571569674        2.4814799219
 H          4.5330435223        0.5410272951        2.3646165247
 C          3.4409191061       -1.2106675029        1.7960986016
 H          3.6515895131       -2.2501194939        1.5455349108
 H          2.9645760850       -1.1769060385        2.7793120965
 H          4.6208610078       -0.6576475516       -2.0896950275
 H          5.1519705163       -2.3384221156       -2.1619660534
 H          3.4054577561       -2.9096105348       -0.4334929584
 H          2.7986144435       -2.3836888667       -2.0152603952
 O          1.6236610474       -0.4280313483       -1.3915050805
 C          0.8048672400        0.6432979085       -1.0549384828
 O          0.0977026564        1.0465232515       -1.9951239004
 H         -1.7613676260        0.5037530932        1.2444979495
 C         -2.1500738568        1.2109300471        0.5253738641
 C         -1.3484004663        2.2629986434        0.0994675510
 C         -1.8698009428        3.1719852464       -0.8116255213
 C         -3.1600074824        3.0210499899       -1.2876762050
 C         -3.9509009077        1.9660440605       -0.8726002663
 C         -3.4383413340        1.0525195899        0.0421615288
 N         -4.2197593813       -0.0215274923        0.4905686452
 S         -3.5244114838       -1.4331918391        1.0244041501
 O         -4.5922082981       -2.4079843421        0.9355722981
 O         -2.9631673868       -1.2500890455        2.3402922340
 C         -2.2420320136       -1.8807069559       -0.1326976521
 C         -2.4473021256       -1.7084672977       -1.4864663269
 C         -1.4806076968       -2.1545828399       -2.3724500851
 C         -0.3407278382       -2.7800690151       -1.8946416141
 C         -0.1470374751       -2.9439315623       -0.5323756019
 C         -1.1021921916       -2.4836782513        0.3585189675
 H         -0.9821653579       -2.5770164171        1.4267331901
 H          0.7437644684       -3.4230272778       -0.1587989609
 H          0.4033144363       -3.1370657089       -2.5889464647
 H         -1.6187686357       -2.0118678335       -3.4319335739
 H         -3.3456073661       -1.2286321530       -1.8390410727
 H         -5.0850948156       -0.1743001773       -0.0048242869
 H         -4.9547403414        1.8454877137       -1.2500010494
 H         -3.5523873916        3.7301447789       -2.0005971261
 H         -1.2582158221        3.9839806494       -1.1682927594
 C          0.0477066758        2.3442598469        0.6587382164
 H         -0.0269364289        2.2708869148        1.7571521856
 C          0.7400662230        3.6662243650        0.3568683181
 C          2.2349709136        3.7730256551        0.3697878742
 C          1.4857522887        3.9075480986       -0.9201402356
 H          1.4216986385        4.8855622506       -1.3742017578
 H          1.5334639843        3.0982536038       -1.6319715849
 H          2.7998036701        2.8685850791        0.5437960774
 H          2.6828709921        4.6552255404        0.8020913055
 H          0.1969383601        4.5100427308        0.7714543947
 O          1.5988065072        0.8181185029        2.4725141090
