  62
        -98.94106947
 C          2.4668400433        1.3664635981       -0.0518147434
 C          3.3086193482        0.8066890689        0.9455504175
 C          4.2642118741       -0.2119680537        0.4997846172
 C          4.3067690798       -0.5602135663       -0.7985987442
 C          5.2491111075       -1.5545281863       -1.4209814320
 C          4.7939749990       -3.0148300957       -1.2953025582
 C          4.9097656699       -3.6138214189        0.1068992303
 H          4.7710787001       -4.6921499523        0.0069353064
 H          5.9175437619       -3.4489247721        0.4892409301
 C          3.8812192017       -3.0760818807        1.1118647358
 H          3.0640441287       -2.5887377817        0.5739434942
 H          3.4422333122       -3.9092541289        1.6655723349
 C          4.4498077359       -2.0980737542        2.1402332156
 H          5.1705016347       -2.6152704508        2.7774577100
 H          3.6280152267       -1.7514143393        2.7721173061
 C          5.1324332913       -0.8665954661        1.5312796181
 H          6.0928664476       -1.1449048166        1.0977634516
 H          5.3040093165       -0.1403280342        2.3294541951
 H          5.4128036281       -3.6078787929       -1.9726997288
 H          3.7594206077       -3.0905344035       -1.6387868458
 H          5.3091799081       -1.3029787363       -2.4821075123
 H          6.2403674847       -1.4428794967       -0.9804795370
 O          3.4831657093       -0.0066089418       -1.7254345978
 C          2.5363322836        0.9528572400       -1.3824504816
 O          1.8499660648        1.3341286844       -2.3499371911
 O          3.2728523146        1.1594933727        2.1544448552
 C          1.5031011900        2.4489074802        0.4046265580
 C          0.1305583617        1.8923610264        0.6841877175
 C         -0.4885051852        2.0989522324        1.9113832048
 C         -1.7486243310        1.5828794614        2.1598756110
 C         -2.4186594981        0.8577435334        1.1908144662
 C         -1.8047709138        0.6369075446       -0.0353466632
 C         -0.5391969092        1.1509818998       -0.2797960706
 H         -0.0654338524        0.9773199907       -1.2350433400
 N         -2.4792307053       -0.0825726176       -1.0366473907
 S         -3.1953519266       -1.5431436990       -0.6259283209
 O         -2.5071244310       -2.1813852046        0.4729821716
 O         -3.2683251370       -2.2925505963       -1.8611638737
 C         -4.8422870282       -1.0782691585       -0.1329579099
 C         -5.3501461485       -1.5132059610        1.0754617770
 C         -6.6391424134       -1.1469578709        1.4312675052
 C         -7.3931616734       -0.3574817719        0.5767264702
 C         -6.8691639938        0.0689498648       -0.6347088653
 C         -5.5820750387       -0.2946005505       -0.9969729568
 H         -5.1384940803        0.0142724009       -1.9288151610
 H         -7.4581549849        0.6832405534       -1.2965665795
 H         -8.3951365139       -0.0726018265        0.8563211693
 H         -7.0482616951       -1.4779206911        2.3722774737
 H         -4.7244849003       -2.1198293725        1.7107634717
 H         -1.9503030666       -0.1675775471       -1.8930607508
 H         -3.4004774307        0.4545830652        1.3778973007
 H         -2.2164576999        1.7493103681        3.1180901996
 H          0.0315005820        2.6553498158        2.6774045589
 H          1.9182799843        2.7930388316        1.3651774307
 C          1.4798805054        3.6509665047       -0.5315235653
 C          0.3036306414        4.0359544648       -1.3729276980
 C          0.6656587079        4.8600611199       -0.1763295753
 H          1.0963663827        5.8380863602       -0.3275572292
 H          0.0249735145        4.7858648949        0.6894786103
 H          0.5046779771        4.4280531321       -2.3583251331
 H         -0.5854419326        3.4278138613       -1.3226062233
 H          2.4568339591        3.8350042377       -0.9680710989
