  62
        -98.93301365
 C         -2.1237002212       -0.8926840162        0.7273405978
 C         -2.8516221090        0.2625385741        1.1093473902
 C         -4.2694579764        0.3171407958        0.7204689955
 C         -4.8043973339       -0.7152076544        0.0469440528
 C         -6.2271251618       -0.8951788667       -0.4196585736
 C         -6.9190185322        0.3177706205       -1.0574746997
 C         -5.9915377953        1.2578858645       -1.8413645403
 H         -5.0159973523        0.7899822140       -1.9842825428
 H         -6.4175340052        1.4319061234       -2.8312259291
 C         -5.8093588196        2.6184294518       -1.1639812465
 H         -5.4694695051        3.3400698976       -1.9107845614
 H         -6.7801282828        2.9600136532       -0.7980702555
 C         -4.8027885726        2.6512377951       -0.0142301771
 H         -4.8579142230        3.6374053293        0.4533764019
 H         -3.7874657604        2.5401867836       -0.4053957850
 C         -5.0012239013        1.5803707131        1.0709183755
 H         -4.5434770653        1.9485716646        1.9932491180
 H         -6.0568849134        1.3969092213        1.2562936730
 H         -7.4337172086        0.8902497544       -0.2870721157
 H         -7.6889230449       -0.0732285194       -1.7247576764
 H         -6.8228922320       -1.2410017579        0.4299902954
 H         -6.1877834338       -1.7154782173       -1.1402388359
 O         -4.0739000859       -1.8128299382       -0.2908172402
 C         -2.7233708218       -1.9304650836        0.0142891645
 O         -2.2102862239       -2.9848997748       -0.4013344077
 O         -2.3365309503        1.2088193159        1.7640950551
 C         -0.6583324544       -0.9292614856        1.1192271421
 C          0.1991541312       -0.3129762653        0.0421953834
 C          0.0553019414       -0.6823028057       -1.2925162669
 C          0.8401811857       -0.1006195401       -2.2706002735
 C          1.7960438479        0.8435950759       -1.9360840218
 C          1.9533323087        1.2129180690       -0.6064390261
 C          1.1501850645        0.6411901988        0.3718600685
 H          1.2791369187        0.9503476373        1.3978929079
 N          2.9279959516        2.1577222783       -0.2242173004
 S          4.1580896641        1.6175973581        0.7772665172
 O          3.6012378555        1.1437549282        2.0168102418
 O          5.0935947026        2.7155837663        0.8607828474
 C          4.8880565960        0.2659580356       -0.1303840432
 C          4.3025618827       -0.9820146630       -0.0541676866
 C          4.8210068731       -2.0131611816       -0.8213028900
 C          5.9090940220       -1.7791603904       -1.6482079810
 C          6.4870039164       -0.5201039956       -1.7129084662
 C          5.9699162784        0.5159961800       -0.9519707009
 H          6.3898482477        1.5088472109       -0.9676781157
 H          7.3349988030       -0.3426745741       -2.3545973147
 H          6.3090396470       -2.5842332597       -2.2441814532
 H          4.3700173379       -2.9912628216       -0.7691761930
 H          3.4612284050       -1.1297086017        0.6024854600
 H          3.3300974851        2.6607578663       -1.0033947224
 H          2.4116378400        1.2953795274       -2.6993794422
 H          0.7133660330       -0.3919079259       -3.3021519231
 H         -0.6753578134       -1.4342169145       -1.5502211902
 H         -0.5876021655       -0.2752783774        2.0033025511
 C         -0.1714171522       -2.3118248510        1.5335191850
 C          0.8984607088       -3.0551419321        0.7959936600
 C          1.1929325700       -2.4617119572        2.1392770402
 H          1.3139108849       -3.1232963039        2.9837890158
 H          1.8135414625       -1.5777237412        2.1875580863
 H          0.7950795996       -4.1262924546        0.7150286838
 H          1.3301795270       -2.5925029501       -0.0778897442
 H         -0.9641712332       -2.9126162266        1.9656297915
