  62
        -98.93867436
 C         -1.7132449773        0.8416115283       -0.5601704962
 C         -2.8815078281        1.2519371542        0.1300981562
 C         -4.1457346620        0.6872445566       -0.3671925614
 C         -4.1470220843       -0.1460672183       -1.4217296606
 C         -5.3559112959       -0.7933138752       -2.0412113667
 C         -5.8046177627       -2.0793236514       -1.3335835941
 C         -6.4710875662       -1.8750388717        0.0276520092
 H         -7.2748009335       -1.1444103715       -0.0689622423
 H         -6.9278022045       -2.8269349496        0.3060172153
 C         -5.5113291136       -1.4431000786        1.1452572355
 H         -5.7051710602       -2.0373599646        2.0411378252
 H         -4.4820483300       -1.6499075227        0.8421129704
 C         -5.6248275490        0.0283666617        1.5438194598
 H         -6.6114153337        0.2163951570        1.9730483900
 H         -4.8776376112        0.2330072836        2.3146371668
 C         -5.3977151433        1.0138956363        0.3901993157
 H         -5.2786821059        2.0143717494        0.8130693447
 H         -6.2579954148        1.0156195037       -0.2785234124
 H         -6.5178217500       -2.5813272258       -1.9915860437
 H         -4.9384184730       -2.7358221190       -1.2208817555
 H         -5.0822762859       -1.0433652986       -3.0685422999
 H         -6.1820459354       -0.0820991139       -2.0647571088
 O         -3.0069192147       -0.4909071841       -2.0789710619
 C         -1.7742387594       -0.0218771170       -1.6576847156
 O         -0.8145397276       -0.4266430231       -2.3463934515
 O         -2.8943603103        2.0417699026        1.1073040250
 C         -0.3160945570        1.2967998576       -0.1727666370
 C          0.2622552793        0.4187988549        0.9080679609
 C         -0.4466922618        0.1315818188        2.0704751252
 C          0.1105629897       -0.6724509388        3.0476736133
 C          1.3768658311       -1.2064460335        2.8856146796
 C          2.0951959481       -0.9257084890        1.7290983560
 C          1.5345304773       -0.1125433807        0.7533402444
 H          2.0866126691        0.0872796458       -0.1513390302
 N          3.3947719279       -1.4191849549        1.5588634575
 S          3.9739889974       -1.8485119164        0.0480820040
 O          2.9426757690       -2.4315921324       -0.7765816530
 O          5.1141992060       -2.6921213205        0.3371479661
 C          4.5522665869       -0.3133941882       -0.6426612589
 C          4.0758168070        0.1145483622       -1.8659377209
 C          4.5405620700        1.3141436507       -2.3826737457
 C          5.4694600715        2.0585079842       -1.6718125209
 C          5.9417285645        1.6117788851       -0.4466824954
 C          5.4812759362        0.4139029071        0.0753961808
 H          5.8257225050        0.0304921470        1.0211853891
 H          6.6639419249        2.1941345426        0.1022892959
 H          5.8255606750        2.9926819554       -2.0764503302
 H          4.1710229083        1.6619268489       -3.3341901560
 H          3.3438327171       -0.4885172323       -2.3819157055
 H          3.7114418514       -2.0501545302        2.2802614950
 H          1.8074459418       -1.8377121257        3.6480361770
 H         -0.4491379193       -0.8896317311        3.9451034072
 H         -1.4323906913        0.5501644024        2.2024105449
 H          0.2935675649        1.1438640247       -1.0776919288
 C         -0.2442657637        2.7794943143        0.1709111060
 C          0.0101925343        3.3010540428        1.5497372385
 C          1.0797651558        3.4004839893        0.5065936684
 H          1.3165567826        4.3691518677        0.0937557452
 H          1.9275718507        2.7372538094        0.5959554568
 H         -0.5144342599        4.1959070841        1.8475258505
 H          0.1409472945        2.5892152254        2.3490017379
 H         -0.9147699964        3.3669608644       -0.4479771197
