  62
        -98.93743907
 C          2.1776376040        0.8023251806       -0.0889831549
 C          2.9117106219        0.0958051686        0.8908587225
 C          3.7328370790       -1.0276862223        0.4101584954
 C          3.7216576386       -1.3390237182       -0.8975333078
 C          4.4480821461       -2.4592215110       -1.5993530117
 C          5.9100681327       -2.7119586885       -1.2045231252
 C          6.6978939941       -1.4611505058       -0.7883184144
 H          7.6335947829       -1.4286945290       -1.3494260595
 H          6.1346907583       -0.5614804297       -1.0420412375
 C          7.0446701186       -1.4425969879        0.7024491749
 H          7.8846763086       -0.7617262581        0.8594022183
 H          7.3742590090       -2.4411331876        0.9977988885
 C          5.9189109557       -0.9926383647        1.6328812847
 H          5.7378099429        0.0780450895        1.5047533803
 H          6.2537744163       -1.1390608682        2.6626655645
 C          4.5756695305       -1.7165104930        1.4446995096
 H          4.7235998018       -2.7679287524        1.2100496377
 H          4.0203976939       -1.6442541253        2.3842080756
 H          5.9483323023       -3.4398777059       -0.3951858336
 H          6.3929817398       -3.1757831439       -2.0662167704
 H          3.8747516216       -3.3797752251       -1.4556861052
 H          4.3936235357       -2.2094245710       -2.6615686198
 O          2.9709184489       -0.6506034877       -1.8036924082
 C          2.1899139148        0.4332696162       -1.4332576989
 O          1.5690385871        0.9648724265       -2.3719246015
 H         -0.0565506007       -0.2596310697        0.6733018590
 C         -0.6805657770        0.5210635768        0.2539183146
 C         -0.1202710288        1.7656318368       -0.0074953795
 C         -0.9383097992        2.7596507668       -0.5283891249
 C         -2.2723244451        2.5031143494       -0.7948450535
 C         -2.8196589146        1.2579247652       -0.5487328848
 C         -2.0138413178        0.2586953859       -0.0184174943
 N         -2.5621235096       -1.0149529187        0.2281279855
 S         -3.9032041953       -1.0894007405        1.2399456800
 O         -3.8950233604       -0.0143634914        2.2055348933
 O         -3.8997503799       -2.4334234164        1.7757709564
 C         -5.2882649227       -0.9072578047        0.1368456766
 C         -6.2105139995        0.0980752532        0.3520474104
 C         -7.2878277720        0.2147586455       -0.5125714760
 C         -7.4229578260       -0.6713898411       -1.5703111386
 C         -6.4888859094       -1.6770399128       -1.7710410116
 C         -5.4104455161       -1.8003388652       -0.9096660234
 H         -4.6645636003       -2.5686118421       -1.0282230888
 H         -6.5971496892       -2.3640844742       -2.5948214111
 H         -8.2611901302       -0.5781087297       -2.2426003822
 H         -8.0150199666        0.9956133249       -0.3581856685
 H         -6.0599276636        0.7671242144        1.1840827144
 H         -1.8750735269       -1.6966674937        0.5170831863
 H         -3.8555384814        1.0520264872       -0.7632522382
 H         -2.8937165278        3.2844824437       -1.2047526209
 H         -0.5305624358        3.7367267062       -0.7286887756
 C          1.3328696748        1.9886235720        0.3339479995
 H          1.4170179567        2.0309450367        1.4310610226
 C          1.9012333582        3.2675723329       -0.2460603994
 C          1.7636423410        4.5640873210        0.4930174314
 C          3.0975231908        3.8868350540        0.4103619080
 H          3.8625468840        4.3220791226       -0.2149120346
 H          3.4818152432        3.4021193595        1.2962984257
 H          1.2460042802        4.5474894288        1.4403076401
 H          1.6149332371        5.4690463452       -0.0765422121
 H          1.8592949586        3.2853184398       -1.3294052633
 O          2.8731739017        0.3816783215        2.1189571197
