  62
        -98.94379616
 C         -1.6383394388       -1.4240950631        0.3973116985
 C         -1.7743154156       -0.1836375275        1.0761669508
 C         -3.0500155943        0.5183995475        0.9040133094
 C         -4.0254082210       -0.0464812374        0.1702449637
 C         -5.4021400673        0.5156638445       -0.0601016591
 C         -5.4814365319        1.5331833159       -1.2063037537
 C         -4.8445349770        2.8920294017       -0.9131502078
 H         -5.1607641570        3.5719819989       -1.7067161147
 H         -5.2396846359        3.2817922011        0.0254723040
 C         -3.3105330982        2.8709763690       -0.8612794347
 H         -2.9428265184        1.9568320729       -1.3331661208
 H         -2.9157770653        3.7092092747       -1.4393892856
 C         -2.7191531768        2.9716959278        0.5448501089
 H         -2.9598925534        3.9462237023        0.9753629448
 H         -1.6332011200        2.8925321625        0.4597811697
 C         -3.1960498088        1.8803682608        1.5119506342
 H         -4.2308850280        2.0589152754        1.8037298919
 H         -2.5699291209        1.9132478737        2.4069351530
 H         -6.5394072715        1.6907643518       -1.4287236161
 H         -5.0170370585        1.0966205043       -2.0935600148
 H         -6.0455846244       -0.3316500248       -0.3070857623
 H         -5.7686198333        0.9727884336        0.8596495430
 O         -3.8678743725       -1.2459657761       -0.4453384803
 C         -2.6694442088       -1.9462905951       -0.3841867089
 O         -2.6803877262       -2.9945022925       -1.0596341524
 O         -0.8714109011        0.3077783537        1.8034391254
 C         -0.3100093504       -2.1396430366        0.5681356105
 C          0.6431957975       -1.8301132616       -0.5618642225
 C          0.3124396384       -2.0996688758       -1.8857354867
 C          1.2109578705       -1.8210537946       -2.8990944103
 C          2.4481196910       -1.2693546506       -2.6156589078
 C          2.7912008610       -1.0022844840       -1.2950898880
 C          1.8863830855       -1.2830368844       -0.2798521271
 H          2.1659554680       -1.0792933534        0.7418261285
 N          4.0511108679       -0.4784218626       -0.9833291644
 S          4.3168506575        0.4946477807        0.3447072573
 O          5.6128023431        1.0847216610        0.0884365795
 O          4.2036495770       -0.2767675558        1.5567444383
 C          3.0653471283        1.7626966721        0.2851930556
 C          2.1134003871        1.8485705862        1.2787623816
 C          1.1620691430        2.8538473379        1.2119978275
 C          1.1766208044        3.7483295405        0.1538697150
 C          2.1409008546        3.6496366843       -0.8386231745
 C          3.0959675926        2.6493853762       -0.7742920149
 H          3.8705937539        2.5546005384       -1.5178037698
 H          2.1493181649        4.3495798059       -1.6586878769
 H          0.4341346423        4.5297171411        0.1038560617
 H          0.4095791550        2.9146197985        1.9815944090
 H          2.1185423837        1.1345566576        2.0860056710
 H          4.6179588234       -0.2140050549       -1.7745990846
 H          3.1477951134       -1.0554984624       -3.4089358766
 H          0.9443949559       -2.0344896467       -3.9232897218
 H         -0.6519690742       -2.5293427364       -2.1095996081
 H          0.1253205436       -1.7214642904        1.4865196965
 C         -0.4362413767       -3.6404476944        0.7452255981
 C          0.6842032961       -4.3870218182        1.4021835175
 C         -0.6190542138       -4.2054560200        2.1201217937
 H         -1.2663427157       -5.0607332986        2.2432068588
 H         -0.6527731893       -3.5105779958        2.9468125793
 H          0.9345470787       -5.3693188900        1.0319237714
 H          1.5361431818       -3.8164470407        1.7418693119
 H         -0.9593162670       -4.1281276277       -0.0667824879
