  62
        -98.94268184
 C         -1.8204199030       -1.0517944833       -0.1242379246
 C         -3.2046411731       -1.3073865464        0.0519099464
 C         -4.1241359198       -0.2624709965       -0.4175274769
 C         -3.6194021169        0.8592907700       -0.9621299158
 C         -4.4356203893        2.0232035840       -1.4427782025
 C         -4.6355156584        3.0600699919       -0.3286605787
 C         -5.1149456683        2.4602310630        0.9931219838
 H         -4.3284276331        1.8206131906        1.4001450176
 H         -5.2524904334        3.2859258511        1.6945719976
 C         -6.4179509776        1.6553288039        0.8892193315
 H         -7.0704732978        1.9362978033        1.7185647514
 H         -6.9396213354        1.9115538638       -0.0336433860
 C         -6.2340695775        0.1382429217        0.9621651984
 H         -7.2181404358       -0.3172846759        1.1011187430
 H         -5.6302654961       -0.1163405653        1.8369040381
 C         -5.5978289885       -0.5177111411       -0.2699819848
 H         -5.7054732122       -1.6010535603       -0.1617508510
 H         -6.1341445441       -0.2081703896       -1.1695387930
 H         -3.6832025115        3.5645200937       -0.1502207536
 H         -5.3548998991        3.8042293711       -0.6751421173
 H         -3.9077908649        2.4930510072       -2.2744554733
 H         -5.3998743376        1.6622695925       -1.7954302498
 O         -2.2879048021        1.0822703495       -1.0899020631
 C         -1.3532150897        0.1455138140       -0.6661991783
 O         -0.1740388851        0.5088541158       -0.8256102345
 H          1.8817295145       -2.0377692478       -0.1903789436
 C          1.6063172373       -1.5697720577        0.7394931048
 C          0.2797962954       -1.5030400702        1.1357425877
 C         -0.0279286019       -0.8565572884        2.3309186548
 C          0.9639550166       -0.2874453190        3.1046799336
 C          2.2872549222       -0.3540645203        2.7043026729
 C          2.6068443793       -0.9977868932        1.5154569839
 N          3.9490413159       -1.1170803682        1.1093676436
 S          4.4550897178       -0.5920356813       -0.3968173631
 O          3.7004497307       -1.2503817701       -1.4299534227
 O          5.8831136535       -0.8292227763       -0.3998085448
 C          4.1565669716        1.1669676448       -0.3926392952
 C          2.8667434672        1.6366198768       -0.5372426920
 C          2.6487144111        3.0047879776       -0.4701952798
 C          3.7097994958        3.8716865351       -0.2612822703
 C          4.9990525387        3.3810721809       -0.1168108604
 C          5.2257675717        2.0160929620       -0.1778385595
 H          6.2102071660        1.5891134998       -0.0734573439
 H          5.8240540917        4.0561400736        0.0448402466
 H          3.5299752508        4.9342047132       -0.2110653842
 H          1.6417143796        3.3747490369       -0.5812738342
 H          2.0486807178        0.9528072176       -0.6989552656
 H          4.6108050836       -0.8002276705        1.8044300553
 H          3.0664505904        0.0858749719        3.3083993931
 H          0.7076121568        0.2127742618        4.0264088777
 H         -1.0625564441       -0.8046119257        2.6427507766
 C         -0.8440435231       -2.1171738595        0.3393755431
 H         -1.4344511541       -2.7488655925        1.0249646753
 C         -0.3531571651       -3.0322218646       -0.7724809656
 C         -1.2082481280       -3.3376751882       -1.9648124170
 C          0.0356911502       -2.5186310812       -2.1247937439
 H          0.8925502470       -2.9591459139       -2.6139384698
 H         -0.0619092926       -1.4598301485       -2.3065177738
 H         -1.2143980415       -4.3476943050       -2.3462075736
 H         -2.1623946126       -2.8364390895       -2.0400995466
 H          0.2349601370       -3.8584131433       -0.3833048360
 O         -3.6496927644       -2.3603663205        0.5814290754
