  62
        -98.94892263
 C         -2.2411753122       -0.8372657980        0.0768467413
 C         -1.5868020008       -0.1065122196       -0.9436655464
 C         -1.9751298172        1.3037326321       -1.0753514245
 C         -2.8742346152        1.8211283902       -0.2191618316
 C         -3.3657372134        3.2394265130       -0.2405881100
 C         -2.5301134167        4.1516776073        0.6663226916
 C         -1.0215534973        4.0337848946        0.4483250213
 H         -0.5406738985        4.7653380428        1.1025604301
 H         -0.6794896014        3.0487111329        0.7746425179
 C         -0.5647696920        4.2654527591       -0.9986658682
 H          0.3203787863        4.9050156385       -0.9837062823
 H         -1.3399415598        4.7938949260       -1.5559977818
 C         -0.1765688552        2.9852768121       -1.7411491998
 H          0.4863388376        2.3943492341       -1.1039895774
 H          0.3841884405        3.2645208896       -2.6374444319
 C         -1.3436703639        2.0942307186       -2.1863903055
 H         -2.0925724440        2.6987639627       -2.7034783545
 H         -0.9498895557        1.3563897233       -2.8916180042
 H         -2.8436437852        5.1839109199        0.4961223078
 H         -2.7449889440        3.8989291365        1.7074335021
 H         -3.3379817752        3.6076027929       -1.2645686186
 H         -4.3997388157        3.2459499133        0.1099819142
 O         -3.4362003914        1.1034776093        0.7886644656
 C         -3.1244699240       -0.2339105568        0.9691112879
 O         -3.6922783174       -0.7696615084        1.9452011226
 H         -0.3726264551       -0.9523953717        1.9058671990
 C          0.2060368346       -1.6590823685        1.3225261496
 C         -0.4462183435       -2.4912875634        0.4206983907
 C          0.3132025713       -3.3950931902       -0.3107802996
 C          1.6910460778       -3.4280460055       -0.1769836870
 C          2.3402073183       -2.5490484218        0.6711636085
 C          1.5850003218       -1.6643490199        1.4281443238
 N          2.2623598743       -0.6947719085        2.2287601980
 S          2.2779413606        0.7906630235        1.4169239506
 O          3.0224975927        1.6956550551        2.2678921094
 O          0.9371097250        1.2232906578        1.0868721412
 C          3.2107697756        0.4081700461       -0.0449496662
 C          2.5574719199       -0.0139195019       -1.1858957548
 C          3.3160083311       -0.3553506390       -2.2954567947
 C          4.6988431238       -0.2740693094       -2.2444955482
 C          5.3376425684        0.1510166107       -1.0888681675
 C          4.5880882772        0.4934808855        0.0243460645
 H          5.0354998485        0.8319770945        0.9444441306
 H          6.4132887527        0.2134741576       -1.0516146334
 H          5.2814329167       -0.5444265048       -3.1111589032
 H          2.8139484731       -0.6888458138       -3.1893470640
 H          1.4795715378       -0.0783637588       -1.2011774882
 H          1.8114440628       -0.5474470969        3.1229539437
 H          3.4147116111       -2.5327334739        0.7533978772
 H          2.2672838474       -4.1288299534       -0.7608282820
 H         -0.1740480796       -4.0611504277       -1.0038985362
 C         -1.9354992373       -2.3150708917        0.2626349555
 H         -2.4277120634       -2.6148994196        1.1993607991
 C         -2.5236267477       -3.1152933007       -0.8808140952
 C         -2.9261680048       -4.5438927420       -0.6741549900
 C         -3.9745114264       -3.4851072389       -0.8335588588
 H         -4.5445285859       -3.4540685571       -1.7498738609
 H         -4.5348183121       -3.1787611566        0.0381286703
 H         -2.7807518220       -4.9672445256        0.3081287969
 H         -2.7811288224       -5.2434731035       -1.4832624362
 H         -2.1121033817       -2.8301255140       -1.8421838017
 O         -0.7361594424       -0.6132714404       -1.7207772679
