  62
        -98.94526067
 C         -1.6907374298       -0.6187570607        0.8432051030
 C         -2.0838116919       -0.0762064872       -0.4061878874
 C         -2.2568702720        1.3852520282       -0.4461780748
 C         -1.9799652784        2.1172126265        0.6464446689
 C         -2.0999764851        3.6107883836        0.7401781477
 C         -0.7861265024        4.3178583540        0.3830490457
 C         -0.1615365130        3.8492646948       -0.9313492742
 H          0.7267256016        4.4614467721       -1.1066970820
 H          0.1832609838        2.8172777850       -0.8338434621
 C         -1.0908722086        3.9380981739       -2.1493372628
 H         -1.9166423321        4.6212310395       -1.9436642078
 H         -0.5258041320        4.3521876475       -2.9871664067
 C         -1.6430479328        2.5873585569       -2.6100809626
 H         -0.8229616164        1.8665787554       -2.6731893084
 H         -2.0544031228        2.7103633301       -3.6160426624
 C         -2.7483174179        1.9849790879       -1.7328625783
 H         -3.5175790070        2.7370151488       -1.5403534999
 H         -3.2034883767        1.1621874794       -2.2923379836
 H         -0.9794648884        5.3912662461        0.3295656030
 H         -0.0656820486        4.1438838904        1.1859271239
 H         -2.8937278242        3.9439184402        0.0739968470
 H         -2.3697289214        3.8663727489        1.7667891593
 O         -1.5302331990        1.5696362879        1.8052519875
 C         -1.3647328036        0.1981666840        1.9275527421
 O         -0.9233921005       -0.1630984785        3.0367059223
 H          0.8825794694       -1.1242644637        0.3778862739
 C          0.6210217242       -1.9284022453       -0.2942950285
 C         -0.5813444702       -2.5975116690       -0.1035477819
 C         -0.9074319194       -3.6362005719       -0.9636326874
 C         -0.0552528010       -3.9694548148       -2.0031197446
 C          1.1165515782       -3.2673124139       -2.2184629339
 C          1.4529984699       -2.2283631345       -1.3576649705
 N          2.6278397502       -1.4791027110       -1.5289912966
 S          2.5905793751        0.1628168634       -1.1925699951
 O          1.3053339633        0.7486564398       -1.4863586157
 O          3.7168329884        0.7028980217       -1.9265808688
 C          2.9465188944        0.2586530040        0.5488894063
 C          2.1380975967        1.0137623629        1.3744792541
 C          2.4279976399        1.0762691771        2.7278048721
 C          3.5228380079        0.3890572941        3.2284310160
 C          4.3322059362       -0.3577740045        2.3852728755
 C          4.0442489199       -0.4259133445        1.0318096782
 H          4.6461153360       -0.9972706074        0.3450872031
 H          5.1821990767       -0.8903184190        2.7805231366
 H          3.7416166150        0.4352307207        4.2835570107
 H          1.7858532070        1.6444621732        3.3818408641
 H          1.2841868347        1.5215670400        0.9519253368
 H          3.1433729566       -1.6795263908       -2.3737200693
 H          1.7610615494       -3.5103559276       -3.0496588757
 H         -0.3202104687       -4.7745477911       -2.6718848226
 H         -1.8389977988       -4.1640255677       -0.8413750268
 C         -1.4502442384       -2.1095248641        1.0288748381
 H         -0.8587804074       -2.1826177472        1.9570731088
 C         -2.7023899379       -2.9424519709        1.2512394706
 C         -3.9327854880       -2.3351063184        1.8550005630
 C         -3.9415624670       -2.7817398527        0.4253173359
 H         -4.5039403527       -3.6687078189        0.1716468220
 H         -3.9309412986       -2.0340952780       -0.3511035359
 H         -4.4872936110       -2.9112797155        2.5804715763
 H         -3.9162525351       -1.2739656225        2.0586942238
 H         -2.4612208319       -3.9513124847        1.5722551634
 O         -2.3061778637       -0.7648953104       -1.4348792177
