  62
        -98.94182502
 C         -2.3791760559       -1.0729996287        0.1365812079
 C         -3.6346931642       -0.9293459387        0.7851648073
 C         -4.6068228171       -0.0445385269        0.1356357679
 C         -4.2734716502        0.5873422144       -1.0038168553
 C         -5.1600058330        1.5062068698       -1.7998615400
 C         -5.1762617154        2.9540611405       -1.2907813270
 C         -5.9328700814        3.1747064390        0.0197715886
 H         -6.0515032552        4.2530426041        0.1428046547
 H         -6.9315924008        2.7446195069       -0.0619544172
 C         -5.2267920902        2.6113833761        1.2610183234
 H         -4.1765720604        2.4207007821        1.0271822847
 H         -5.2454958428        3.3561959202        2.0598479745
 C         -5.8508504580        1.3323398838        1.8193088015
 H         -6.8597577671        1.5442254155        2.1799908867
 H         -5.2508681164        1.0018844196        2.6708905607
 C         -5.9248121771        0.1746694333        0.8152320578
 H         -6.7049675880        0.3648486453        0.0784549041
 H         -6.1733235340       -0.7380156326        1.3623436420
 H         -5.6464987572        3.5654150534       -2.0645346963
 H         -4.1445797279        3.2962763099       -1.1791406578
 H         -4.7719184743        1.5049449332       -2.8208330748
 H         -6.1768556707        1.1125985378       -1.8138555984
 O         -3.0564758285        0.4389902287       -1.5880764056
 C         -2.0729241497       -0.3739969625       -1.0327409202
 O         -1.0116819328       -0.3786154403       -1.6849355479
 O         -3.9299893480       -1.5186049461        1.8581073042
 C         -1.3553555283       -1.9705805436        0.8113635889
 C         -0.0512782616       -1.2330719387        0.9691037725
 C          0.0899014433       -0.3058150251        1.9972891956
 C          1.2579543288        0.4195934393        2.1368740817
 C          2.3045864375        0.2440002080        1.2482737646
 C          2.1642227722       -0.6621258222        0.2062988709
 C          0.9999045282       -1.4095270033        0.0843909910
 H          0.8959475159       -2.1028737480       -0.7356055743
 N          3.2136249181       -0.8429997783       -0.7088157774
 S          4.0446197404        0.4960721799       -1.2824208066
 O          3.2289462952        1.6878747090       -1.2936446453
 O          4.5943889686        0.0778654415       -2.5539939341
 C          5.3800946330        0.6818707722       -0.1162850937
 C          6.1797313971       -0.4150398437        0.1391083518
 C          7.2276840467       -0.2856062680        1.0362830627
 C          7.4599388377        0.9324763012        1.6575870993
 C          6.6512688518        2.0256393677        1.3876886656
 C          5.6005137788        1.9020909747        0.4917589146
 H          4.9429481102        2.7236488506        0.2547329845
 H          6.8332239524        2.9722919566        1.8707144291
 H          8.2760287420        1.0307048676        2.3558954743
 H          7.8588676397       -1.1334889729        1.2483926980
 H          5.9680547613       -1.3420348396       -0.3668606910
 H          2.9806507728       -1.4685844009       -1.4666037661
 H          3.2120951042        0.8176307413        1.3415215658
 H          1.3553192160        1.1327449242        2.9413939532
 H         -0.7339783809       -0.1535864209        2.6810381605
 H         -1.7723962429       -2.1444080364        1.8165188283
 C         -1.1887145764       -3.3417400973        0.1732388824
 C         -2.3800337233       -4.0837936697       -0.3524730041
 C         -1.3270368396       -3.5916457513       -1.2973900175
 H         -0.6698116900       -4.3183551790       -1.7532370021
 H         -1.5562380890       -2.7537382788       -1.9368911418
 H         -2.4526388852       -5.1446427502       -0.1666171616
 H         -3.3300416959       -3.5696415216       -0.3369100735
 H         -0.4424767404       -3.9343417382        0.6941741445
