  62
        -98.94108323
 C          2.0858197307        1.0389860900        0.0011070693
 C          2.6304483008        0.3026945998        1.0859277791
 C          3.3510652304       -0.9272650803        0.7451835789
 C          3.4296529300       -1.3163721204       -0.5397966211
 C          4.1001196795       -2.5629615605       -1.0503326412
 C          5.6156806595       -2.4245067609       -1.2510155116
 C          6.4406874399       -2.3717704311        0.0354879381
 H          6.1723824798       -3.2157433410        0.6715787782
 H          7.4868747698       -2.4980065313       -0.2499122421
 C          6.2984636404       -1.0630854710        0.8250978382
 H          5.8675979304       -0.2940473309        0.1798763183
 H          7.2870671406       -0.7107404613        1.1274111979
 C          5.4504888407       -1.1762156308        2.0919274284
 H          5.3835933011       -0.1861591808        2.5497564284
 H          5.9408397807       -1.8443961010        2.8031438883
 C          4.0224648405       -1.6832501205        1.8517069088
 H          4.0331229302       -2.7502177005        1.6293226288
 H          3.4413015508       -1.5214338904        2.7627832589
 H          5.8086318596       -1.5285123309       -1.8454856317
 H          5.9454017292       -3.2874436910       -1.8341595317
 H          3.6424819392       -2.7874263704       -2.0165038811
 H          3.8950353495       -3.3907606305       -0.3705207812
 O          2.8675833299       -0.6034341502       -1.5501700209
 C          2.1886656102        0.5867586099       -1.3141943008
 O          1.7416738401        1.1136543700       -2.3519883406
 O          2.5205172612        0.6656710599        2.2871201492
 C          1.3466858311        2.3186520001        0.3566499495
 C         -0.1200846789        2.0239663705        0.5385279598
 C         -0.7763403386        2.3200444407        1.7267135500
 C         -2.1117249386        1.9951346710        1.8943598903
 C         -2.8165244290        1.3654741811        0.8838111005
 C         -2.1678974694        1.0642868810       -0.3065157996
 C         -0.8342600794        1.3977812707       -0.4748963800
 H         -0.3349290696        1.1540122205       -1.4019011901
 N         -2.8761648598        0.3896352712       -1.3320218094
 S         -3.1268674801       -1.2446421188       -0.9957013494
 O         -2.0371981301       -1.7933548990       -0.2176285797
 O         -3.3828921606       -1.8722812187       -2.2738257893
 C         -4.6228380999       -1.2380577884       -0.0316877090
 C         -5.7950570699       -0.8469881581       -0.6492987587
 C         -6.9658825897       -0.8260855379        0.0916541916
 C         -6.9442486195       -1.1944522879        1.4288552516
 C         -5.7592975894       -1.5861434381        2.0332092413
 C         -4.5842179696       -1.6089720584        1.2979338810
 H         -3.6377943596       -1.9008343087        1.7244276408
 H         -5.7440857592       -1.8716149681        3.0727760613
 H         -7.8565258593       -1.1767096676        2.0039164218
 H         -7.8893854798       -0.5226712576       -0.3744325181
 H         -5.7654414001       -0.5743823081       -1.6910093487
 H         -2.4041181800        0.4568498810       -2.2246378396
 H         -3.8554856690        1.1070478214        1.0078652308
 H         -2.6075698883        2.2297250711        2.8236315605
 H         -0.2261053382        2.7893108305        2.5289914099
 H          1.7493707314        2.6062252201        1.3406455293
 C          1.6241219611        3.4664481401       -0.6042267206
 C          0.5820743510        4.0890327603       -1.4803140804
 C          1.1022222015        4.8383496702       -0.2929708105
 H          1.7476564017        5.6880853700       -0.4548480907
 H          0.4466998318        4.9344980704        0.5594544297
 H          0.8845285009        4.4003642002       -2.4686413304
 H         -0.4238347390        3.7020903606       -1.4374257901
 H          2.6240672810        3.4103434798       -1.0221548709
