  62
        -98.94737280
 C         -1.7867320471       -1.1742950031       -0.4449579731
 C         -1.2444710437       -1.8562994900        0.6741747279
 C         -0.1148821831       -2.7599503853        0.3889624510
 C          0.3516156740       -2.8724212009       -0.8666280913
 C          1.5300870479       -3.7033041828       -1.2818355137
 C          2.8362198260       -2.8993341468       -1.2286783588
 C          3.0684704439       -2.1694179669        0.0945144909
 H          4.0495966056       -1.6920943661        0.0357445088
 H          2.3361268638       -1.3671161444        0.2065992723
 C          3.0086083202       -3.0645817483        1.3394222154
 H          3.1363383785       -4.1108311279        1.0568258283
 H          3.8383165060       -2.8006740273        1.9986366618
 C          1.7258421138       -2.9073226925        2.1588359942
 H          1.5400700612       -1.8454589790        2.3411484816
 H          1.8815050038       -3.3835423636        3.1312792821
 C          0.4622227416       -3.5254838882        1.5459786163
 H          0.6615569654       -4.5608142477        1.2581568472
 H         -0.3116714822       -3.5267698253        2.3195116302
 H          3.6658563418       -3.5840314352       -1.4145950515
 H          2.8216711422       -2.1555939196       -2.0286467714
 H          1.6008353261       -4.5729278897       -0.6312676059
 H          1.3651200876       -4.0403558242       -2.3068116054
 O         -0.1910530693       -2.2026003594       -1.9152173473
 C         -1.2598542233       -1.3422366156       -1.7295231263
 O         -1.6528766394       -0.7888693418       -2.7760066249
 H         -0.9391115554        0.6608950434        1.3154758849
 C         -1.3171708817        1.4655527456        0.7037499331
 C         -2.3513786906        1.2338198805       -0.1913514199
 C         -2.8365760534        2.2990764225       -0.9408267587
 C         -2.2894573404        3.5620575420       -0.8049829214
 C         -1.2258999753        3.7780524810        0.0527950950
 C         -0.7315785536        2.7194732801        0.8058795860
 N          0.3715571887        2.8962842861        1.6614761922
 S          1.6628179533        1.8361814207        1.5342871533
 O          1.2915937977        0.5352160340        2.0211539699
 O          2.7410387469        2.4990333227        2.2352105453
 C          2.0340881090        1.7685913543       -0.2085060024
 C          1.3396356737        0.8874668753       -1.0122124827
 C          1.5893630381        0.8775224252       -2.3751271772
 C          2.5320771820        1.7427000341       -2.9085225386
 C          3.2273573687        2.6187493563       -2.0880312586
 C          2.9734988455        2.6388201619       -0.7262008297
 H          3.4937756824        3.2992741943       -0.0515070819
 H          3.9622827552        3.2870320793       -2.5070156753
 H          2.7238689061        1.7307236398       -3.9698575202
 H          1.0333024723        0.1989506303       -3.0042457818
 H          0.6124765121        0.2225883254       -0.5726052146
 H          0.7130379116        3.8466410284        1.6976454609
 H         -0.7775464851        4.7561175736        0.1390034008
 H         -2.6779436084        4.3815883961       -1.3897116948
 H         -3.6366791697        2.1283649431       -1.6451116477
 C         -2.9161885006       -0.1583543231       -0.3644037992
 H         -3.4178059190       -0.1884127473       -1.3423123417
 C         -3.9498046206       -0.4422318679        0.7066178996
 C         -5.3474138606        0.0659988560        0.5247667280
 C         -5.0632066778       -1.4016639910        0.4184144188
 H         -5.3938662656       -2.0559705037        1.2107132023
 H         -5.0886970521       -1.8566604211       -0.5613143475
 H         -5.8788016395        0.4253097010        1.3924995513
 H         -5.5750777204        0.6025229330       -0.3836700010
 H         -3.5406422621       -0.4440689485        1.7081963567
 O         -1.6636732327       -1.7415650456        1.8555012936
