  62
        -98.94171665
 C         -2.3815544619       -1.0675867241        0.1337793841
 C         -3.6398925516       -0.9327837200        0.7783941958
 C         -4.6164952551       -0.0478054000        0.1316431298
 C         -4.2703872460        0.5951287331       -0.9979197111
 C         -5.1430036971        1.5706848339       -1.7320081178
 C         -4.9072335306        3.0058440650       -1.2409280450
 C         -4.9434063796        3.1523312493        0.2803731341
 H         -4.7967376272        4.2103864928        0.5080429921
 H         -4.0964475787        2.6121213882        0.7100322338
 C         -6.2428334975        2.6630846569        0.9352472978
 H         -7.0312883919        2.5914818765        0.1851768943
 H         -6.5628064532        3.4025660747        1.6722982789
 C         -6.1190345502        1.3268674972        1.6697132853
 H         -7.0200520424        1.1854321500        2.2723813887
 H         -5.2690962910        1.3634014319        2.3557172408
 C         -5.9660457048        0.0874305825        0.7791702724
 H         -6.7566056841        0.0755336557        0.0260519866
 H         -6.0833983585       -0.7944585480        1.4156665949
 H         -5.6640168983        3.6523176587       -1.6890579504
 H         -3.9267651475        3.3353866824       -1.5930649386
 H         -6.1860966484        1.2938873690       -1.5910366334
 H         -4.9017423050        1.5158836346       -2.7949998259
 O         -3.0520321775        0.4602718383       -1.5774114093
 C         -2.0725315706       -0.3631169974       -1.0315442144
 O         -1.0121392336       -0.3689935552       -1.6847432077
 O         -3.9327643962       -1.5283269801        1.8489309289
 C         -1.3579203853       -1.9684036867        0.8049093640
 C         -0.0538930140       -1.2313467386        0.9653669154
 C          0.0850402466       -0.3041083997        1.9938877840
 C          1.2527654449        0.4212262305        2.1361531003
 C          2.3016485103        0.2452299019        1.2502708332
 C          2.1637427574       -0.6610343174        0.2081066855
 C          0.9993667310       -1.4079587026        0.0832279683
 H          0.8972089297       -2.1011131695       -0.7371392692
 N          3.2152290430       -0.8432790935       -0.7041290979
 S          4.0558231436        0.4926138147       -1.2708466870
 O          3.2459991569        1.6883624683       -1.2846552662
 O          4.6102798727        0.0736697390       -2.5400736998
 C          5.3867271197        0.6696629230       -0.0981582582
 C          6.1837791539       -0.4301050102        0.1530379166
 C          7.2293607723       -0.3078221647        1.0539589122
 C          7.4618276334        0.9061537361        1.6831679131
 C          6.6556674587        2.0022248581        1.4175747161
 C          5.6073696881        1.8858489509        0.5178142703
 H          4.9522806491        2.7101890918        0.2835476483
 H          6.8379169409        2.9456914197        1.9066829401
 H          8.2762170929        0.9989687846        2.3841904181
 H          7.8586054463       -1.1579852327        1.2627117845
 H          5.9720903144       -1.3535466835       -0.3593796576
 H          2.9826221453       -1.4666966399       -1.4638066835
 H          3.2089511593        0.8187219943        1.3459053877
 H          1.3483403433        1.1343933331        2.9408685789
 H         -0.7403203937       -0.1521210791        2.6759394665
 H         -1.7745760184       -2.1466246726        1.8094116991
 C         -1.1915036886       -3.3369047623        0.1610597175
 C         -2.3824998279       -4.0758745058       -0.3697508297
 C         -1.3275712742       -3.5805789629       -1.3108514807
 H         -0.6701616898       -4.3059657475       -1.7685409870
 H         -1.5549382440       -2.7398708299       -1.9472801270
 H         -2.4561733870       -5.1374348049       -0.1883687349
 H         -3.3322471805       -3.5612553769       -0.3536201581
 H         -0.4466764885       -3.9323852777        0.6807746905
