  62
        -98.94488090
 C         -2.6411751760       -0.3133980000        0.0035597072
 C         -2.4560256117       -1.4319832192       -0.8419807861
 C         -1.7720464046       -2.5814708161       -0.2422709222
 C         -1.3731949570       -2.5237338460        1.0417524269
 C         -0.6177138214       -3.5947999524        1.7799264684
 C          0.8970541728       -3.5383838790        1.5328899850
 C          1.3502164792       -4.0572104623        0.1667192534
 H          2.4311077267       -4.2021761043        0.2222137223
 H          0.8992894684       -5.0325760545       -0.0211026438
 C          1.0391489825       -3.1070385145       -0.9984916459
 H          1.9150003820       -3.0286601169       -1.6481925357
 H          0.8415391148       -2.1083816679       -0.5995656379
 C         -0.1319839290       -3.5427451111       -1.8799881501
 H         -0.2944170675       -2.7735860044       -2.6397954720
 H          0.1233634498       -4.4731797413       -2.3925965268
 C         -1.4531405620       -3.7487100558       -1.1283115240
 H         -2.2554545161       -3.8335253250       -1.8657634107
 H         -1.4151856636       -4.6679436775       -0.5446555269
 H          1.3785999578       -4.1396077311        2.3078548730
 H          1.2264901097       -2.5028606536        1.6553660088
 H         -0.8010076636       -3.4290522684        2.8436131905
 H         -1.0015804726       -4.5786779018        1.5079096587
 O         -1.6246097501       -1.4534163507        1.8401086582
 C         -2.2081943144       -0.3053331826        1.3308997861
 O         -2.3070811746        0.6291916703        2.1501736038
 H         -0.6474950175        0.6128621797       -1.2775025811
 C         -0.7938839364        1.6069629812       -0.8712794965
 C         -2.0709035857        2.0053625217       -0.4946071369
 C         -2.2334486352        3.2865576725        0.0141014906
 C         -1.1391348187        4.1188496611        0.1865386137
 C          0.1377827094        3.6904814156       -0.1289353495
 C          0.3027737873        2.4243965656       -0.6702285877
 N          1.6186875643        1.9338754862       -0.9245980637
 S          2.1705345314        1.1452028610        0.4767561995
 O          1.4199449106       -0.0722825843        0.6961518077
 O          2.1724773618        2.1081177387        1.5481098967
 C          3.8476046033        0.7493244929        0.0174374962
 C          4.7633247940        1.7810730314       -0.0599799320
 C          6.0633135513        1.4943128350       -0.4437234401
 C          6.4232452398        0.1882783274       -0.7425887637
 C          5.4927108790       -0.8361364414       -0.6599879251
 C          4.1897335481       -0.5556021544       -0.2782382190
 H          3.4335674684       -1.3201402763       -0.1953493957
 H          5.7748368884       -1.8506623953       -0.8911300363
 H          7.4360462446       -0.0329842345       -1.0402159350
 H          6.7902278293        2.2877474136       -0.5083105798
 H          4.4378516725        2.7772112040        0.1890329995
 H          1.5984821076        1.2338668623       -1.6578757790
 H          1.0025755599        4.3063819006        0.0544340512
 H         -1.2820195073        5.1059701143        0.5993966779
 H         -3.2151301292        3.6253881033        0.3032165539
 C         -3.1745015042        0.9791709190       -0.5926107114
 H         -3.3632588642        0.7600011900       -1.6541699756
 C         -4.4696309915        1.4082525846        0.0593306833
 C         -5.4523014254        2.2472767128       -0.7006034152
 C         -5.7561502787        0.8073846706       -0.4193846945
 H         -6.5160565463        0.5709577434        0.3099939387
 H         -5.6995923395        0.1017414719       -1.2352829570
 H         -6.0086849457        3.0010711325       -0.1644808417
 H         -5.1966803741        2.5223519245       -1.7126265068
 H         -4.3609063737        1.5787443544        1.1244261982
 O         -2.8230742734       -1.4575920591       -2.0491772255
