  62
        -98.92810935
 C          2.4468289818        0.6129865314        0.9616458296
 C          3.5000123576        1.0196979446        0.1096968173
 C          4.7622530101        0.2500323771        0.1977638063
 C          4.8393482984       -0.7880990490        1.0493717869
 C          5.9906335111       -1.7319943736        1.2760147185
 C          6.1416791350       -2.7663869258        0.1495165826
 C          6.0190902014       -2.1999636216       -1.2624296516
 H          6.0431713947       -3.0408630019       -1.9606832716
 H          5.0459468836       -1.7176777397       -1.3716622159
 C          7.1199406570       -1.2231792352       -1.6690397500
 H          6.9634931800       -0.9800363886       -2.7231599973
 H          8.0891685488       -1.7195904020       -1.5837588042
 C          7.1736564572        0.0892662857       -0.8837771508
 H          7.8189501567        0.7748632738       -1.4408805121
 H          7.6402903723       -0.0514074066        0.0874791122
 C          5.8284655254        0.7905606149       -0.7250576433
 H          6.0092295367        1.8198039020       -0.3920003099
 H          5.3567723951        0.8878858611       -1.7095672449
 H          7.1076598140       -3.2613526494        0.2633298860
 H          5.3595114920       -3.5191879676        0.2748624315
 H          6.9113337837       -1.1729093899        1.4136863423
 H          5.7807408333       -2.2616749960        2.2079369901
 O          3.7891358042       -1.1557886272        1.8394659235
 C          2.5892857424       -0.4779974390        1.8221996731
 O          1.7338729184       -0.9245384354        2.6142508769
 O          3.4217041915        1.9768651970       -0.7025055943
 C          1.0946662975        1.3045870283        1.0120736581
 C          0.1499631449        0.7152453998       -0.0043824191
 C          0.5188251087        0.5768373318       -1.3385979882
 C         -0.3645866623        0.0390303831       -2.2569094109
 C         -1.6265595814       -0.3736296287       -1.8670882912
 C         -2.0050127990       -0.2408397252       -0.5379400466
 C         -1.1178356253        0.3061193001        0.3817197847
 H         -1.4107005898        0.3970424400        1.4191767715
 N         -3.2778349886       -0.6764834677       -0.1295898117
 S         -4.5848027321       -0.2937313584       -1.1312022216
 O         -4.6510569933       -1.2712312058       -2.1882698747
 O         -4.4946602761        1.0864692471       -1.5516217208
 C         -5.9509304665       -0.5170081045       -0.0099773595
 C         -6.4591464035        0.5799647918        0.6597431606
 C         -7.5052889561        0.3958032158        1.5500039714
 C         -8.0198948176       -0.8753362188        1.7565515540
 C         -7.4989568574       -1.9664848786        1.0768579475
 C         -6.4538496194       -1.7894729973        0.1842117536
 H         -6.0237091393       -2.6056854307       -0.3723310760
 H         -7.9038111237       -2.9524395360        1.2385756502
 H         -8.8340160726       -1.0158066834        2.4499168127
 H         -7.9144834229        1.2423656738        2.0774935809
 H         -6.0348338045        1.5511312231        0.4607132485
 H         -3.4723464097       -0.4423568142        0.8344055287
 H         -2.3240495235       -0.7910308329       -2.5754885516
 H         -0.0680745939       -0.0603711316       -3.2906272016
 H          1.5000096031        0.9033416680       -1.6482901602
 H          0.6926966870        1.0664604693        2.0098727727
 C          1.1942277130        2.8215839847        0.9205820356
 C          0.7333529856        3.6185027484       -0.2585018747
 C         -0.0464486765        3.6596040034        1.0190163717
 H         -0.0199221130        4.5575240602        1.6175182918
 H         -0.9948706212        3.1432435740        1.0362296277
 H          1.3222354977        4.4778461720       -0.5402622400
 H          0.3064968016        3.0926444562       -1.0980064325
 H          2.0730143460        3.1966977034        1.4350779940
