  62
        -98.94316203
 C          2.5133118723        0.9956488647       -0.1895374024
 C          3.6759402672        0.9166505951        0.6135218845
 C          4.7374743566        0.0293655546        0.1208516888
 C          4.5566565704       -0.6313552679       -1.0376124802
 C          5.5307145067       -1.6098303730       -1.6259511136
 C          5.2369562014       -3.0397489844       -1.1507216268
 C          5.0596952150       -3.1636427396        0.3625964400
 H          4.8876917514       -4.2190512990        0.5846004977
 H          4.1591230677       -2.6221805993        0.6612672209
 C          6.2522716157       -2.6560190503        1.1851495175
 H          7.1378439662       -2.5898409512        0.5521029905
 H          6.4696843323       -3.3818037014        1.9716254525
 C          6.0207980640       -1.3097567520        1.8738742809
 H          6.8289295506       -1.1521994184        2.5931674426
 H          5.0845916718       -1.3423598162        2.4369851098
 C          5.9853521068       -0.0852244415        0.9506682535
 H          6.8731688948       -0.0777944077        0.3151458626
 H          6.0076478574        0.8075660953        1.5825792431
 H          6.0533643610       -3.6864089112       -1.4773574250
 H          4.3179462971       -3.3822564511       -1.6318338442
 H          6.5417938401       -1.3223902025       -1.3441444553
 H          5.4413848669       -1.5721899913       -2.7128720706
 O          3.4323329895       -0.5172904704       -1.7895402437
 C          2.3789361427        0.2892005957       -1.3846247796
 O          1.4066127024        0.2939882013       -2.1626153377
 O          3.8166759582        1.5547659992        1.6917263528
 C          1.3692096967        1.8846874221        0.2632274607
 C          0.1178699977        1.0613377052        0.4421133098
 C          0.1639670336       -0.0502784305        1.2803575306
 C         -0.9539009489       -0.8372169923        1.4747332693
 C         -2.1458959318       -0.5351194125        0.8384831926
 C         -2.2079518927        0.5772104354        0.0121600850
 C         -1.0817569829        1.3703610919       -0.1772813429
 H         -1.1478894713        2.2294771211       -0.8264362686
 N         -3.4090381620        0.8876938015       -0.6427467700
 S         -4.8514458749        0.8436835873        0.2077032295
 O         -5.7375819410        1.7337747420       -0.5100847013
 O         -4.6498868384        1.1316136186        1.6086216144
 C         -5.4223661330       -0.8301846502        0.0021317803
 C         -5.7483843645       -1.5886164571        1.1092325335
 C         -6.2033132863       -2.8848899799        0.9234653938
 C         -6.3246763688       -3.3963756938       -0.3593619206
 C         -5.9953932944       -2.6207372486       -1.4610939712
 C         -5.5408580862       -1.3241209069       -1.2821239840
 H         -5.2775120152       -0.6895792720       -2.1118955791
 H         -6.0906725146       -3.0219698327       -2.4572770988
 H         -6.6783205827       -4.4053343601       -0.5018216002
 H         -6.4602281445       -3.4894003269        1.7784886720
 H         -5.6339794404       -1.1511436585        2.0883760448
 H         -3.3565252526        1.6952865945       -1.2456655601
 H         -3.0210247818       -1.1474837692        0.9816878037
 H         -0.8988229382       -1.6974700623        2.1247019372
 H          1.0950177684       -0.2885703212        1.7768175742
 H          1.6690672665        2.2657407919        1.2507860870
 C          1.2076217824        3.0583601039       -0.6793052704
 C          0.5928906593        4.3359083695       -0.1926253864
 C          2.0627070083        4.2717600241       -0.4774261556
 H          2.4434217405        4.7850702193       -1.3476297189
 H          2.7474522132        4.2623085603        0.3578525751
 H         -0.0348849230        4.8983389763       -0.8676757366
 H          0.2764570334        4.3769464866        0.8388533168
 H          1.0122606010        2.7504678769       -1.7006423858
