  62
        -98.94790958
 C          0.9467995400        1.6456625397        0.4595649055
 C          1.7115374900        1.3072733953       -0.6836675483
 C          2.8251483218        0.3738234518       -0.4557605092
 C          3.0633471140       -0.0811433662        0.7872775852
 C          4.1771676950       -1.0137940194        1.1659645202
 C          3.7385959198       -2.4830283562        1.1354384186
 C          3.0309926199       -2.8969655769       -0.1548923492
 H          2.8369263591       -3.9704528243       -0.0887935585
 H          2.0561379056       -2.4082796571       -0.2187392219
 C          3.8169517074       -2.6019275363       -1.4395895241
 H          3.7341310421       -3.4675184787       -2.1003558066
 H          4.8752074192       -2.4675021175       -1.2097924892
 C          3.3038469677       -1.3939612307       -2.2270413077
 H          2.2164953499       -1.4652054416       -2.3217283457
 H          3.7264699861       -1.4394803513       -3.2347841338
 C          3.6535637953       -0.0172601251       -1.6459241651
 H          4.7195239683        0.0228136817       -1.4090531432
 H          3.4438627611        0.7328817547       -2.4143498827
 H          4.6237018515       -3.1062600017        1.2797093702
 H          3.0585527715       -2.6627071163        1.9715885444
 H          5.0121165247       -0.8613248158        0.4845751785
 H          4.4980941353       -0.7635101352        2.1792044912
 O          2.3001688081        0.2572513308        1.8583668263
 C          1.2171928629        1.1132995718        1.7187999299
 O          0.5895517605        1.3218666998        2.7768261439
 O          1.4874513592        1.7716683602       -1.8322532209
 C         -0.2276962844        2.5966920740        0.3406313164
 C         -1.2773157221        2.0785319820       -0.6148826085
 C         -2.1705491978        2.9250064335       -1.2628066652
 C         -3.1417957083        2.4072683357       -2.1014842481
 C         -3.2495826958        1.0441895957       -2.3106855276
 C         -2.3588735362        0.1897154164       -1.6703242608
 C         -1.3942211823        0.7127926482       -0.8238553446
 H         -0.6949393438        0.0445431634       -0.3482318387
 N         -2.4167812283       -1.1913788446       -1.8745080717
 S         -1.6485546724       -2.2916488561       -0.8967825993
 O         -0.2180389953       -2.1761190062       -1.0228615700
 O         -2.2185341985       -3.5622877834       -1.2926385013
 C         -2.1608344333       -1.9067520115        0.7674762464
 C         -1.2161667777       -1.6123432443        1.7285754857
 C         -1.6338313078       -1.2914413405        3.0099125873
 C         -2.9874175159       -1.2787131694        3.3078345925
 C         -3.9262174425       -1.5906661586        2.3357773738
 C         -3.5121892399       -1.9054082868        1.0519864553
 H         -4.2140222545       -2.1562553383        0.2735970813
 H         -4.9775864422       -1.5831920056        2.5742357532
 H         -3.3092785197       -1.0230671857        4.3049790199
 H         -0.8988897953       -1.0312399331        3.7550363461
 H         -0.1698568385       -1.6234353789        1.4618964920
 H         -3.2204032272       -1.5513116294       -2.3633011401
 H         -4.0032393800        0.6436065386       -2.9706126424
 H         -3.8267547028        3.0754855682       -2.6008962871
 H         -2.1006901092        3.9902514834       -1.1138606380
 H         -0.6819769495        2.6422783898        1.3425321754
 C          0.2604842833        3.9842818654       -0.0329204110
 C         -0.3895377226        5.2054887000        0.5429584228
 C          0.9774961704        4.7982490530        1.0009922255
 H          1.8270457745        5.3900473133        0.6949678825
 H          1.0799853994        4.3643988188        1.9854026908
 H         -0.4781842570        6.0835595587       -0.0790714778
 H         -1.2110914783        5.0619023900        1.2285956258
 H          0.6308820500        4.0315999381       -1.0505564830
