  62
        -98.94302077
 C         -0.9301462227       -1.3077369718        0.2759791666
 C         -1.4237928247       -0.2024042687        1.0039626364
 C         -2.2776443107        0.7387486134        0.2604664356
 C         -2.4944528785        0.5287112141       -1.0494310080
 C         -3.3718296727        1.3433671980       -1.9587535057
 C         -4.7740567446        0.7186781818       -2.0541255643
 C         -5.7481532020        1.1555949017       -0.9600659289
 H         -6.0444602916        2.1913532095       -1.1389364008
 H         -6.6434653445        0.5375329005       -1.0586790760
 C         -5.2254660993        1.0381315499        0.4746927079
 H         -4.6857102229        0.0972168610        0.5950668709
 H         -6.0895973903        1.0026232201        1.1409593566
 C         -4.3311325282        2.2152576264        0.8912237794
 H         -4.4586313371        3.0241738717        0.1714739715
 H         -4.6721909466        2.6000548056        1.8542520697
 C         -2.8324534437        1.8978835448        1.0431098650
 H         -2.2566196059        2.7966375508        0.7984604993
 H         -2.6154025847        1.6519378701        2.0871978433
 H         -4.6565434232       -0.3679175594       -2.0327654926
 H         -5.2099008088        0.9804675180       -3.0204831141
 H         -3.4228972999        2.3747743554       -1.6212777941
 H         -2.9064819601        1.3191246351       -2.9467027780
 O         -1.9710321464       -0.5303031659       -1.7231192136
 C         -1.1756066222       -1.4679939777       -1.0878119595
 O         -0.7693039599       -2.3854416901       -1.8268147798
 H          1.3947267374       -0.1977326517        0.3015231129
 C          1.9018062458       -1.1047729220        0.0086387870
 C          1.3136553959       -2.3303236421        0.2959238196
 C          1.9844245145       -3.4898148865       -0.0682543457
 C          3.1930731925       -3.4136638688       -0.7395788173
 C          3.7454744606       -2.1912439760       -1.0737257595
 C          3.0893268392       -1.0240150628       -0.6971738476
 N          3.6204652555        0.2372910029       -1.0010655159
 S          2.6078290861        1.5409135697       -1.2736758467
 O          1.3692978261        1.1564458944       -1.9104776728
 O          3.4335120491        2.4777780408       -2.0085658416
 C          2.3087740418        2.1969295986        0.3531575185
 C          1.0149620758        2.4416184748        0.7658947504
 C          0.8009713004        2.9556292808        2.0348193568
 C          1.8815837494        3.2188743358        2.8618898821
 C          3.1767376266        2.9752993816        2.4296315767
 C          3.3963128710        2.4593447454        1.1629624282
 H          4.3859665385        2.2562328224        0.7895765727
 H          4.0134274065        3.1820673166        3.0772492766
 H          1.7098481471        3.6143886979        3.8504839515
 H         -0.2070772085        3.1308461807        2.3742162656
 H          0.2007291672        2.2064296154        0.0964380967
 H          4.4175684825        0.2325222282       -1.6202080933
 H          4.6715767022       -2.1358824207       -1.6252550627
 H          3.7024246600       -4.3215622916       -1.0253932325
 H          1.5557816863       -4.4523642891        0.1575986908
 C         -0.0329453466       -2.3131117307        0.9762269374
 H          0.0983385582       -1.9285919844        1.9987383060
 C         -0.6983227682       -3.6711792353        1.0444433204
 C         -0.3785840656       -4.6141954114        2.1647494561
 C         -1.7099176583       -3.9284366526        2.1195898134
 H         -2.5851816843       -4.5113269863        1.8747986722
 H         -1.8998692415       -3.1294889719        2.8212975723
 H          0.3346033850       -4.2859875907        2.9054301487
 H         -0.3417947330       -5.6721596402        1.9532077947
 H         -0.8948618193       -4.0862796697        0.0620783092
 O         -1.1671992874       -0.0099958718        2.2236235612
