  62
        -98.93906221
 C         -1.9592546241       -0.4051042064       -0.1935474840
 C         -2.9822160526       -0.7990573178        0.7031761311
 C         -4.2143891609        0.0077080429        0.7059893960
 C         -4.3063299159        1.0718263637       -0.1132293338
 C         -5.4051854129        2.0976363595       -0.2982168285
 C         -6.7965976247        1.8661630268        0.2850675759
 C         -7.5820944176        0.7291002548       -0.3680665890
 H         -8.5068920394        0.5849765445        0.1947715681
 H         -7.8542036455        1.0336188600       -1.3818988543
 C         -6.8487755258       -0.6059260965       -0.4702989109
 H         -5.9685586758       -0.4930035626       -1.1064440922
 H         -7.5155789561       -1.3159700911       -0.9670096993
 C         -6.4234186823       -1.2218605178        0.8609170280
 H         -7.2901477004       -1.3104532787        1.5187437720
 H         -6.0559772927       -2.2306215869        0.6542534649
 C         -5.3121068913       -0.4697080742        1.6128285742
 H         -5.7165232510        0.3550714507        2.1946091156
 H         -4.8470607555       -1.1681846355        2.3145448087
 H         -6.7346975175        1.7206000565        1.3595006113
 H         -7.3589011947        2.7899916267        0.1236777022
 H         -5.4912312661        2.2505591269       -1.3788437965
 H         -5.0083431573        3.0325829060        0.1129177667
 O         -3.2836396758        1.4272759942       -0.9442152292
 C         -2.0990486902        0.7117630606       -1.0147747253
 O         -1.2838367877        1.1691178694       -1.8388472466
 O         -2.8703935373       -1.7869212583        1.4767367119
 C         -0.6763765105       -1.2195049025       -0.2122412967
 C          0.4259766608       -0.4046378433        0.4170030587
 C          0.5875180456       -0.4197052313        1.7992735310
 C          1.5753501451        0.3352686836        2.4044567525
 C          2.4224428095        1.1217274904        1.6436222325
 C          2.2627080412        1.1493002210        0.2646838059
 C          1.2782341901        0.3821467717       -0.3428362540
 H          1.1544064989        0.4260044937       -1.4132695509
 N          3.1323684270        1.9376993890       -0.5129523078
 S          4.7692464332        1.6689510468       -0.2809645407
 O          5.2184548886        2.3984364286        0.8787196488
 O          5.4034164289        2.0211573802       -1.5319995191
 C          4.8933960338       -0.0853096194        0.0231282174
 C          5.2880562118       -0.5440810339        1.2629920637
 C          5.3151739125       -1.9101714467        1.4942849244
 C          4.9423929112       -2.7882675859        0.4888716998
 C          4.5502189215       -2.3116753304       -0.7527642832
 C          4.5228521378       -0.9474590974       -0.9900339953
 H          4.2270889095       -0.5442521093       -1.9452829983
 H          4.2602795322       -2.9969990014       -1.5330368418
 H          4.9573096543       -3.8510751864        0.6721452294
 H          5.6206599397       -2.2840481899        2.4581860897
 H          5.5651827452        0.1737781883        2.0174824978
 H          2.8990547528        1.9404094798       -1.4952814330
 H          3.1996849647        1.7179971462        2.0938584984
 H          1.6890148401        0.3113669959        3.4774780645
 H         -0.0798124452       -1.0264655264        2.3948522630
 H         -0.8736588671       -2.0799779665        0.4407833948
 C         -0.3303112396       -1.7265226672       -1.5974573108
 C          0.7553263479       -2.7492334779       -1.7474348876
 C         -0.6750072856       -3.1352303978       -1.9722849366
 H         -1.0050053027       -3.3327371275       -2.9813328361
 H         -1.1635703101       -3.7456653642       -1.2272054941
 H          1.4089311074       -2.6833985078       -2.6036973369
 H          1.2400808504       -3.0929611845       -0.8463570994
 H         -0.4266996403       -0.9730038211       -2.3694122042
