  62
        -98.93821472
 C          2.6799960553        1.2061800368        0.2365300426
 C          3.0645226227        0.2533840032        1.2152112706
 C          4.2561960896       -0.5455369677        0.9149301582
 C          4.9283613129       -0.3299063377       -0.2301488167
 C          6.1786029912       -1.0410849001       -0.6717546382
 C          5.9199307537       -2.3857033699       -1.3650969890
 C          5.4656543128       -3.5169512816       -0.4418520325
 H          5.5333024824       -4.4440451144       -1.0145719264
 H          6.1585088317       -3.6009295642        0.3960216764
 C          4.0318413827       -3.3669607903        0.0858025263
 H          3.4918084191       -2.6400918769       -0.5254761226
 H          3.5062260601       -4.3194441119       -0.0121759932
 C          3.9359327307       -2.9464597649        1.5525025181
 H          4.3538426984       -3.7311152032        2.1871928418
 H          2.8790629812       -2.8331677753        1.8074024324
 C          4.6451151302       -1.6255710045        1.8785586180
 H          4.3358138592       -1.3070828595        2.8771080911
 H          5.7257166498       -1.7673527812        1.8755496170
 H          5.1761492740       -2.2359202553       -2.1510447633
 H          6.8534305813       -2.6895019487       -1.8444280867
 H          6.6787354921       -0.3783642264       -1.3812818878
 H          6.8358221027       -1.1924394772        0.1850696970
 O          4.5421191150        0.6055910562       -1.1349937591
 C          3.3989488183        1.3766531653       -0.9475997048
 O          3.1641118239        2.1521521388       -1.8912956525
 O          2.4410833456        0.0886918797        2.2986344919
 C          1.4382420162        2.0233387904        0.5445050460
 C          0.2049560633        1.3439356738        0.0058648641
 C          0.1150366323        0.9590960342       -1.3284116637
 C         -1.0275116699        0.3404609931       -1.8021442397
 C         -2.0963244390        0.0857780782       -0.9600141804
 C         -2.0162325371        0.4623072687        0.3735630571
 C         -0.8695719351        1.0902625645        0.8451982681
 H         -0.8060695391        1.3717191533        1.8878673514
 N         -3.0859062778        0.1873418646        1.2384817904
 S         -4.6495102101        0.5436715179        0.7476745699
 O         -4.6713299456        1.6548123999       -0.1744933330
 O         -5.3978439678        0.7098998097        1.9740937048
 C         -5.1930728343       -0.9425718958       -0.0675760776
 C         -5.7144803125       -0.8754182919       -1.3446410370
 C         -6.1446517732       -2.0433527638       -1.9551591283
 C         -6.0475178666       -3.2507176168       -1.2806935340
 C         -5.5234124342       -3.3007078643        0.0025689934
 C         -5.0925553667       -2.1368592546        0.6188136170
 H         -4.6819972340       -2.1339936451        1.6147865616
 H         -5.4489869404       -4.2416245508        0.5236489592
 H         -6.3821248639       -4.1583092871       -1.7578505912
 H         -6.5524440673       -2.0065722425       -2.9525973788
 H         -5.7658721703        0.0847602893       -1.8330927968
 H         -2.9267431186        0.4653430274        2.1957461877
 H         -2.9864977861       -0.3982620029       -1.3270147534
 H         -1.0861802429        0.0498580408       -2.8402161414
 H          0.9480857716        1.1551682258       -1.9868657492
 H          1.3652640000        2.0084582255        1.6439968367
 C          1.5492717032        3.4818582119        0.1239180545
 C          0.7612543182        4.0934335943       -0.9911142723
 C          0.4312320753        4.4351170019        0.4290011326
 H          0.6738810472        5.4197182524        0.7989343869
 H         -0.4777573890        4.0204953960        0.8399268055
 H          1.2562834509        4.8304007701       -1.6046456576
 H          0.0713902709        3.4691221644       -1.5363904689
 H          2.5574077753        3.8614690374        0.2564920734
