  62
        -98.94477644
 C          1.1623391812       -1.7754750782        0.6757407243
 C          1.2113984355       -0.4516180815        1.1813106476
 C          2.5026803143        0.2424967734        1.0325463354
 C          3.5395165641       -0.3914816108        0.4587423522
 C          4.9017626727        0.1999709981        0.2390069610
 C          5.0189984549        0.8538118022       -1.1437008872
 C          3.8753813084        1.8135769986       -1.4721205231
 H          4.0903000005        2.2561244821       -2.4476177267
 H          2.9448743255        1.2497512623       -1.5783524239
 C          3.6660403070        2.9296879601       -0.4397374148
 H          4.5604036488        3.0436089418        0.1747245253
 H          3.5140273760        3.8711944348       -0.9720642657
 C          2.4452092605        2.7261947114        0.4598504447
 H          1.5842408502        2.4773724285       -0.1669688538
 H          2.2325334464        3.6749332520        0.9619163911
 C          2.5865324630        1.6519533767        1.5469512760
 H          3.5160179395        1.8081135186        2.0994603850
 H          1.7488164816        1.7651877760        2.2415434178
 H          5.9692960766        1.3891834924       -1.1923505052
 H          5.0329512356        0.0663182027       -1.9007726368
 H          5.1011897299        0.9342908579        1.0171196104
 H          5.6373368805       -0.6032076673        0.3130677662
 O          3.4550988829       -1.6608356529       -0.0166123415
 C          2.2677295719       -2.3679946503        0.0605608552
 O          2.3251815477       -3.5136169195       -0.4328938048
 H         -0.9972226965       -0.2701157496       -0.1467582215
 C         -1.3275970020       -1.0769477553       -0.7790879135
 C         -0.9525115489       -2.3779216724       -0.4740392635
 C         -1.3733853788       -3.4086603093       -1.3056133931
 C         -2.1424072969       -3.1359366442       -2.4237385756
 C         -2.5043909202       -1.8369801057       -2.7318024618
 C         -2.0920983421       -0.7991196033       -1.9017827978
 N         -2.4765498679        0.5205925287       -2.1570402003
 S         -1.6666834844        1.8258879884       -1.5031531376
 O         -2.1976902667        2.9611202968       -2.2324760032
 O         -0.2328638740        1.6646328095       -1.5783084165
 C         -2.2341738242        1.9155094834        0.1815761720
 C         -1.4445511615        2.5590664832        1.1113492154
 C         -1.8947624455        2.6636549212        2.4171194465
 C         -3.1223100927        2.1272276277        2.7689232634
 C         -3.9084629852        1.4911987026        1.8210332267
 C         -3.4651109779        1.3856439093        0.5129566957
 H         -4.0514046517        0.8908501174       -0.2438076054
 H         -4.8623736763        1.0713198265        2.0976049048
 H         -3.4668802597        2.2028555820        3.7884222446
 H         -1.2803960030        3.1549629322        3.1544972002
 H         -0.4887155733        2.9511952395        0.8053403686
 H         -2.8966686350        0.7077694884       -3.0539088607
 H         -3.0969340319       -1.6238401720       -3.6082134999
 H         -2.4581723249       -3.9430759274       -3.0672615894
 H         -1.0766024332       -4.4230820181       -1.0828367924
 C         -0.0863562812       -2.6436827489        0.7295008192
 H          0.2806364142       -3.6796263832        0.6512814030
 C         -0.8373281609       -2.5299246058        2.0494035030
 C         -2.1630361047       -1.8533069071        2.2025648616
 C         -2.0759749662       -3.3463592755        2.2755679019
 H         -2.2096750615       -3.8311636499        3.2306557865
 H         -2.4557997998       -3.9093691413        1.4361246428
 H         -2.3317492073       -1.2923580925        3.1087871096
 H         -2.6158134295       -1.4079304028        1.3311965303
 H         -0.1553127686       -2.4394327911        2.8888046151
 O          0.2507605017        0.1308753976        1.7445822261
