  62
        -98.94054921
 C          2.5031962511       -1.0801848418        0.2658872360
 C          2.2468985262        0.3067056037        0.1407714395
 C          3.3116016482        1.0944772544       -0.4945856924
 C          4.4197770465        0.4824886182       -0.9496428944
 C          5.5789058769        1.1458250453       -1.6429269052
 C          6.6092659137        1.7626619309       -0.6869591180
 C          6.1570170450        3.0404895496        0.0207856914
 H          7.0425137224        3.4803460559        0.4838595344
 H          5.7884632312        3.7525448360       -0.7182734170
 C          5.0913302666        2.8211589569        1.1035757364
 H          5.3639731096        3.3806358720        2.0012083212
 H          5.0652559589        1.7646666999        1.3800269981
 C          3.6827229900        3.2624358608        0.7056792505
 H          3.0045089898        3.0286864120        1.5301613816
 H          3.6664750687        4.3437666236        0.5524091592
 C          3.1415812709        2.5824589522       -0.5589898318
 H          2.0710638191        2.7907050153       -0.6326151869
 H          3.6358490788        2.9843063448       -1.4433389101
 H          7.5002688693        1.9944567911       -1.2749691343
 H          6.8878268472        1.0127502902        0.0569265977
 H          6.0749645809        0.3691225967       -2.2289929391
 H          5.2082476990        1.9116551725       -2.3249420836
 O          4.6090262597       -0.8600401101       -0.8458910226
 C          3.6682625015       -1.6678006794       -0.2298399498
 O          3.9773239479       -2.8759604817       -0.1893793918
 H         -1.0247209937       -0.9400720401        1.3915038046
 C         -0.9474186400       -1.4186531996        0.4281695373
 C          0.2431789374       -2.0139736743        0.0478294574
 C          0.3215041622       -2.6056250798       -1.2106874050
 C         -0.7661403562       -2.5995221987       -2.0619255666
 C         -1.9552574485       -2.0020658138       -1.6793773295
 C         -2.0412605514       -1.4039038963       -0.4304359481
 N         -3.2487042097       -0.8077789348       -0.0170036800
 S         -4.0813225476        0.1481871843       -1.1335579561
 O         -4.7677216847       -0.7207328551       -2.0571010111
 O         -3.1947358853        1.1244631178       -1.7273315354
 C         -5.2646557852        0.9437420818       -0.0646835764
 C         -6.4770760037        0.3239774295        0.1703398240
 C         -7.3841948018        0.9298097359        1.0251223194
 C         -7.0649869849        2.1372367127        1.6281646546
 C         -5.8443000125        2.7478381839        1.3818011162
 C         -4.9321216223        2.1469272360        0.5286327450
 H         -3.9755118660        2.5909673691        0.3019754619
 H         -5.5996161578        3.6878075613        1.8498924341
 H         -7.7724163418        2.6078193314        2.2925404533
 H         -8.3351826396        0.4599187692        1.2173686271
 H         -6.6833646156       -0.6091884217       -0.3270292111
 H         -3.1304687539       -0.3010371156        0.8505852088
 H         -2.8071134668       -1.9791986489       -2.3393390543
 H         -0.6903121973       -3.0605140072       -3.0356127844
 H          1.2549578351       -3.0606762366       -1.5142993693
 C          1.4807721907       -2.0008549815        0.9122163822
 H          1.9213804492       -3.0069350389        0.8868140620
 C          1.2312359863       -1.6131400722        2.3539169767
 C          0.6067345561       -2.6025152668        3.2899884377
 C          2.0558949649       -2.2481125968        3.4312481011
 H          2.3601881151       -1.6418209405        4.2712857247
 H          2.7945140525       -2.9763849348        3.1292934600
 H         -0.0838450831       -2.2427801788        4.0374639766
 H          0.3589713415       -3.5750134238        2.8924149225
 H          0.9817262632       -0.5658481068        2.4745166403
 O          1.1919427073        0.8662405470        0.5398004122
