  62
        -98.94437899
 C         -1.8556148602       -1.0279121093       -0.2033136388
 C         -2.3935518200        0.1119191103       -0.8475453597
 C         -3.8590110600        0.2305183403       -0.8147452400
 C         -4.5865522901       -0.7311340192       -0.2175777795
 C         -6.0802472202       -0.7118119091       -0.0725633998
 C         -6.5030810604       -0.0461127081        1.2444427496
 C         -5.8285906804        1.3017996120        1.4996364188
 H         -6.2255133006        1.6910245727        2.4397167285
 H         -4.7573282104        1.1437611321        1.6435101692
 C         -6.0401840501        2.3386588513        0.3877037981
 H         -6.2876384202        3.2983479416        0.8463693174
 H         -6.8885538600        2.0485146309       -0.2331923919
 C         -4.8181394499        2.5733921406       -0.5024688518
 H         -3.9421610701        2.7728993710        0.1202274382
 H         -5.0022655498        3.4681605602       -1.1032139825
 C         -4.4693765398        1.4364983899       -1.4714297610
 H         -5.3549029297        1.1576300196       -2.0463874910
 H         -3.7126894296        1.8130658894       -2.1661638611
 H         -7.5867911304        0.0836279519        1.2329924593
 H         -6.2497383106       -0.7171905376        2.0683964301
 H         -6.5149327800       -0.1801699096       -0.9167375903
 H         -6.4393461002       -1.7423106090       -0.0799198792
 O         -4.0332587503       -1.8220863288        0.3712636513
 C         -2.6589942003       -1.9928761789        0.4037219317
 O         -2.2808889205       -3.0246483085        0.9944232925
 H          1.8455675901        0.1788863199       -1.0943363888
 C          1.4462507099        0.5482137106       -0.1649619392
 C          0.3405939498       -0.0482574590        0.4200001910
 C         -0.1411354205        0.4726546018        1.6191299406
 C          0.4482837395        1.5784526222        2.1983213999
 C          1.5435175596        2.1807858618        1.6035648797
 C          2.0409969098        1.6619843909        0.4153588402
 N          3.1472953800        2.2542070704       -0.2113784600
 S          4.3172879601        1.2979601099       -0.9193892391
 O          5.4978281901        2.1347300298       -0.9470659994
 O          3.8680099303        0.8037545091       -2.1958623688
 C          4.5582058298       -0.0577773393        0.2156474619
 C          4.9228350996        0.2326791816        1.5158634118
 C          5.0977668493       -0.8091663478        2.4115480725
 C          4.9076574994       -2.1179931981        1.9945389834
 C          4.5494321396       -2.3933639890        0.6844135235
 C          4.3711903998       -1.3542796196       -0.2152980473
 H          4.0894234900       -1.5243129303       -1.2414406972
 H          4.4067412796       -3.4119635292        0.3598556441
 H          5.0417362292       -2.9283169876        2.6936866539
 H          5.3804075391       -0.5991505972        3.4304951024
 H          5.0742054695        1.2593433517        1.8066748811
 H          3.5501609899        3.0348935008        0.2851139796
 H          2.0004925596        3.0514609220        2.0485931492
 H          0.0547381093        1.9759403229        3.1217570896
 H         -0.9976109006        0.0023960222        2.0834947207
 C         -0.3529649202       -1.2452748894       -0.1820184883
 H         -0.1799773003       -2.1093703389        0.4763505323
 C          0.1313186201       -1.5914372804       -1.5746746780
 C          1.3053261701       -2.5018288205       -1.7646628471
 C         -0.0765688599       -2.9846985907       -2.0849965971
 H         -0.3523701696       -3.1193745614       -3.1201802470
 H         -0.5412481700       -3.6920489002       -1.4133246767
 H          1.7812759199       -2.8904482599       -0.8772477267
 H          1.9810623203       -2.3019542611       -2.5832226971
 H         -0.0045171997       -0.7777565208       -2.2785894586
 O         -1.6903256098        0.9851434698       -1.4199730401
