  62
        -98.93534945
 C         -2.1389693567       -0.8251103564       -0.4496086586
 C         -3.3253589810       -0.8870952838        0.3209206751
 C         -4.0298707623        0.3822019367        0.5826019020
 C         -3.4959548415        1.5244255462        0.1116001940
 C         -4.0379899462        2.9246812557        0.2234285441
 C         -5.2101369282        3.1854973412       -0.7362369693
 C         -6.2513679559        2.0710632742       -0.7959931513
 H         -5.7636694498        1.1409009501       -1.0928567057
 H         -6.9667287184        2.3275697908       -1.5817712553
 C         -7.0362661560        1.8439560751        0.4937478663
 H         -7.8020646347        1.0942427918        0.2791833014
 H         -7.5464215673        2.7692235694        0.7705534767
 C         -6.2230783769        1.3590827627        1.6960446140
 H         -6.9340567280        1.0042035067        2.4479016953
 H         -5.6728483155        2.1762497709        2.1549028241
 C         -5.2838294780        0.1935829986        1.4021281077
 H         -5.8481773846       -0.6080359840        0.9121245306
 H         -4.9486592399       -0.2329111715        2.3553886596
 H         -4.8009477938        3.3130790618       -1.7413680915
 H         -5.6905650585        4.1214348285       -0.4462212507
 H         -3.2184143428        3.5985502408       -0.0361294588
 H         -4.3235095646        3.1332221894        1.2502355885
 O         -2.3382581590        1.5400742026       -0.6075769983
 C         -1.6305328345        0.3903858133       -0.9056958811
 O         -0.5984810985        0.5943674928       -1.5751730716
 O         -3.7928280230       -1.9678118517        0.7710934324
 C         -1.3967652067       -2.1262193434       -0.7112928154
 C         -0.1595453084       -2.1365587528        0.1524465736
 C         -0.2286714916       -2.6398708869        1.4480539700
 C          0.8689249774       -2.5816778888        2.2871341606
 C          2.0548201023       -2.0126050473        1.8566905126
 C          2.1291755335       -1.4984787126        0.5693553241
 C          1.0333774314       -1.5768478010       -0.2791775226
 H          1.0963304673       -1.1540805686       -1.2695466152
 N          3.3275164469       -0.8992829234        0.1221376978
 S          3.9433016365        0.3146416804        1.1272749690
 O          4.6363792069       -0.3150401549        2.2239912831
 O          2.8968150228        1.2431141935        1.4965398082
 C          5.1192517423        1.0961105434        0.0405514659
 C          6.4217538217        0.6359051830        0.0144897916
 C          7.3239827952        1.2301486108       -0.8535513006
 C          6.9105520387        2.2668793741       -1.6766972939
 C          5.5993168077        2.7175000781       -1.6395163079
 C          4.6914565257        2.1270112385       -0.7745549899
 H          3.6642293202        2.4507045005       -0.7077366357
 H          5.2798176452        3.5243260494       -2.2794620444
 H          7.6141267804        2.7293594900       -2.3507549968
 H          8.3444529873        0.8841516140       -0.8849544681
 H          6.6975155667       -0.1665134150        0.6783762686
 H          3.2106794135       -0.5256396238       -0.8116710284
 H          2.9113893251       -1.9380971740        2.5068956716
 H          0.8004735247       -2.9762107423        3.2899703543
 H         -1.1622239406       -3.0586144734        1.7971182443
 H         -2.0672744961       -2.9182081270       -0.3522897104
 C         -1.1149820167       -2.3558628632       -2.1812095429
 C         -0.6921969535       -3.7197970396       -2.6360977224
 C         -2.0551382358       -3.2031265619       -2.9830492293
 H         -2.2561510576       -2.9210796725       -4.0056889727
 H         -2.9076208730       -3.6255121344       -2.4716076331
 H          0.0443694689       -3.7967479711       -3.4209509083
 H         -0.6183484759       -4.4923003171       -1.8857161926
 H         -0.6803689657       -1.4981190141       -2.6785619815
