  62
        -98.94513780
 C         -1.5320722083       -0.8113661656        0.0112423074
 C         -2.8087526057       -1.4180114386        0.0575013827
 C         -3.9051898278       -0.5667838564        0.5390589770
 C         -3.6389249979        0.6969416410        0.9176622968
 C         -4.6687784668        1.6885103185        1.3746316331
 C         -5.2107936360        2.5090188264        0.1958423323
 C         -5.6431311849        1.6605689735       -1.0000194184
 H         -6.0357284199        2.3420313768       -1.7578805196
 H         -4.7640157401        1.1745580994       -1.4292572528
 C         -6.7000989054        0.5961880220       -0.6739205861
 H         -7.1872561551        0.8347030420        0.2722937039
 H         -7.4696911112        0.6173674049       -1.4485182975
 C         -6.1626312643       -0.8351246776       -0.6197870221
 H         -5.5945432727       -1.0479515164       -1.5289842126
 H         -7.0159725034       -1.5184102877       -0.6005086258
 C         -5.2803408153       -1.1709792840        0.5892373997
 H         -5.7943456874       -0.8866472314        1.5098195533
 H         -5.1310937801       -2.2548123305        0.6001755798
 H         -6.0568125005        3.1020530249        0.5479976528
 H         -4.4289746703        3.1955022488       -0.1367308772
 H         -5.4824904584        1.1596751731        1.8670852607
 H         -4.2003678106        2.3646777573        2.0916690138
 O         -2.3940821079        1.2364573637        0.8827039669
 C         -1.3081882400        0.5026564810        0.4245082790
 O         -0.2275239216        1.1174923734        0.4387075136
 O         -3.0203496721       -2.6142963692       -0.2812807954
 C         -0.3491893481       -1.6134929468       -0.4982484081
 C          0.7471144818       -1.6375455530        0.5368864978
 C          0.4290005042       -1.9640403843        1.8532127940
 C          1.4012199990       -1.9718611411        2.8335671652
 C          2.7108389414       -1.6444192887        2.5268816839
 C          3.0419628766       -1.3338622867        1.2142572977
 C          2.0654641953       -1.3459322365        0.2268319053
 H          2.3557837622       -1.1258584573       -0.7857465409
 N          4.3617136785       -1.0186449786        0.8677204718
 S          4.7015249263        0.0105550715       -0.4005531308
 O          4.5353925771       -0.6795937403       -1.6557025576
 O          6.0426621986        0.4792288264       -0.1202007565
 C          3.5536618492        1.3703305587       -0.2891303526
 C          2.8043575990        1.7168576094       -1.3937055508
 C          1.9348341110        2.7906932443       -1.3049445277
 C          1.8276276382        3.4942025055       -0.1170671094
 C          2.5886666667        3.1352775024        0.9834594335
 C          3.4624664462        2.0647367144        0.8997159623
 H          4.0697985183        1.7662631135        1.7390708191
 H          2.4965129913        3.6821523030        1.9081987670
 H          1.1402474217        4.3222866017       -0.0468911831
 H          1.3355247587        3.0679591227       -2.1579276939
 H          2.9116967948        1.1373655070       -2.2975249206
 H          4.9963467327       -0.8960644820        1.6421900225
 H          3.4692285541       -1.6353054864        3.2945471897
 H          1.1375337245       -2.2244741661        3.8496373775
 H         -0.5965711749       -2.2053986165        2.0978558526
 H         -0.7222568412       -2.6394143621       -0.6358452312
 C          0.1049429424       -1.0728537945       -1.8380422605
 C          0.7840726815       -1.9703436649       -2.8274394924
 C         -0.6140997980       -1.4949519158       -3.0826194951
 H         -0.7782467227       -0.7621491467       -3.8584326409
 H         -1.4225620928       -2.2030883190       -2.9727542376
 H          1.5888372797       -1.5675685455       -3.4246298580
 H          0.9252304015       -3.0038459697       -2.5488840947
 H          0.4329977146       -0.0406860875       -1.7748040028
