  62
        -98.94023034
 C          2.4494467781        0.9484627142       -0.0309959358
 C          2.6103901636       -0.4291127281        0.2530682166
 C          3.9689128846       -0.8456332186        0.6241787573
 C          4.9526256046        0.0689694813        0.7021886415
 C          6.3814409643       -0.1980683756        1.0914685071
 C          7.2632143428       -0.6869454609       -0.0657823644
 C          7.0009506375       -2.1228314703       -0.5216260388
 H          7.0307133514       -2.7882507326        0.3416522890
 H          7.8250011582       -2.4054357114       -1.1796987072
 C          5.6786085123       -2.3158197238       -1.2771165078
 H          5.8543748070       -2.9179061780       -2.1714890081
 H          5.3055218546       -1.3456675148       -1.6135799299
 C          4.5830530428       -3.0129735690       -0.4702692156
 H          4.8903293664       -4.0359161667       -0.2417682626
 H          3.6816581908       -3.0618315992       -1.0867217946
 C          4.2197930757       -2.3071158909        0.8427258920
 H          5.0092962361       -2.4531089550        1.5795389193
 H          3.2955756039       -2.7473010993        1.2251651887
 H          8.3020671967       -0.6175933758        0.2648688400
 H          7.1374866780       -0.0073050128       -0.9117247613
 H          6.7857347959        0.7486150448        1.4560044859
 H          6.4097135916       -0.9245003767        1.9039889066
 O          4.7480853209        1.3895012030        0.4480645952
 C          3.5031364811        1.8573353735        0.0603654785
 O          3.4606259269        3.0852506378       -0.1593084583
 H         -1.4022487396        0.2997164943       -0.7099438697
 C         -1.1575243745        0.5714535828        0.3028727967
 C          0.0580592324        1.1633938124        0.6038102486
 C          0.3268930187        1.4981328216        1.9290635637
 C         -0.5946215601        1.2377036515        2.9240574431
 C         -1.8100082282        0.6501396005        2.6187765802
 C         -2.0879856712        0.3117490349        1.3002861558
 N         -3.2999693132       -0.3117088101        0.9634654546
 S         -4.0072693297        0.0316963735       -0.5293359944
 O         -3.3933497804       -0.7869557554       -1.5439429361
 O         -3.9982115413        1.4579749725       -0.7662252557
 C         -5.6717413499       -0.5346091927       -0.2282118756
 C         -6.6477649026        0.3785109010        0.1236478917
 C         -7.9302214167       -0.0781506811        0.3846234363
 C         -8.2126268903       -1.4327259214        0.2929380992
 C         -7.2227963564       -2.3371896180       -0.0624234376
 C         -5.9388989277       -1.8872873816       -0.3260109434
 H         -5.1402391977       -2.5508953492       -0.6141532805
 H         -7.4467135299       -3.3892046779       -0.1356533793
 H         -9.2112066121       -1.7857360087        0.4965490442
 H         -8.7027923768        0.6225401680        0.6574778582
 H         -6.3839300078        1.4226721760        0.1743347994
 H         -3.9767626831       -0.2893590585        1.7137855007
 H         -2.5314844324        0.4475623916        3.3957167456
 H         -0.3691452247        1.5008261354        3.9467570932
 H          1.2744299762        1.9639126911        2.1661343048
 C          1.0911527714        1.4793881040       -0.4505117694
 H          1.1935325298        2.5736763801       -0.5064305503
 C          0.7281608910        0.9561672464       -1.8244486822
 C         -0.2048260601        1.7317287543       -2.7034128889
 C          1.2539145839        1.6580780054       -3.0386865500
 H          1.5592362024        1.0637579356       -3.8867821043
 H          1.8607207302        2.5375713928       -2.8783162101
 H         -0.5950501542        2.6624606534       -2.3191776719
 H         -0.9081624394        1.1858227886       -3.3149314704
 H          0.6728538485       -0.1265974905       -1.8570020122
 O          1.6731095247       -1.2675849576        0.2041480183
