  62
        -98.94120242
 C         -1.5129571402       -1.5823065997       -0.2184604303
 C         -2.6786071302       -1.2646788294        0.5206416795
 C         -3.5050009301       -0.1472934295        0.0265037891
 C         -3.1132918200        0.5021384201       -1.0851371011
 C         -3.7687855498        1.6881264400       -1.7399573115
 C         -3.4932088198        3.0108145602       -1.0000226819
 C         -3.4888286900        2.9127953907        0.5242400482
 H         -2.7879011800        2.1351927907        0.8341397185
 H         -3.1179033699        3.8623865507        0.9189417379
 C         -4.8524956200        2.6533333909        1.1606123481
 H         -5.5121891300        3.4973452509        0.9451675278
 H         -4.7079300601        2.6130895512        2.2432446981
 C         -5.5607972901        1.3718188408        0.7226587684
 H         -5.9375254300        1.4687263506       -0.2919187316
 H         -6.4354542701        1.2464356911        1.3679861584
 C         -4.7335828402        0.0975080008        0.8680405589
 H         -4.4011877903        0.0061493411        1.9081230289
 H         -5.3917878402       -0.7635803792        0.6976936591
 H         -4.2354599897        3.7451263401       -1.3167342422
 H         -2.5109088398        3.3727773400       -1.3119887319
 H         -4.8359280498        1.5077884200       -1.8347506315
 H         -3.3563184797        1.7609406397       -2.7487540215
 O         -1.9825246599        0.1630365299       -1.7650081909
 C         -1.1546150900       -0.8699334601       -1.3616828605
 O         -0.1650235800       -1.0396229503       -2.0999684703
 O         -3.0185639804       -1.8876865891        1.5616971297
 C         -0.6169136103       -2.6922164496        0.3088016701
 C          0.6269696497       -2.0307604695        0.8471249100
 C          0.6276624196       -1.5185213391        2.1417234799
 C          1.7130298496       -0.8089056390        2.6213894998
 C          2.8099712797       -0.5713384794        1.8111500398
 C          2.8106634098       -1.0672844197        0.5144331400
 C          1.7382321098       -1.8138498998        0.0471100801
 H          1.7513263399       -2.1822274601       -0.9661293498
 N          3.8903338099       -0.7676750101       -0.3382454000
 S          4.3289673100        0.8486404699       -0.4077728805
 O          4.8247080001        1.0593936795       -1.7502884005
 O          5.2687068999        1.1300740401        0.6504903395
 C          2.8322292500        1.7851132901       -0.1323189709
 C          1.7332356801        1.5408391699       -0.9314334709
 C          0.5704097401        2.2596403700       -0.7067883713
 C          0.5237812901        3.2067642303        0.3037486085
 C          1.6383912700        3.4457992805        1.0925080685
 C          2.8033569200        2.7282653904        0.8753981388
 H          3.6899876299        2.8753717605        1.4705911589
 H          1.6005758900        4.1840643707        1.8771888283
 H         -0.3874836499        3.7576969604        0.4766996982
 H         -0.2943299998        2.0586368599       -1.3194827113
 H          1.7709080701        0.7913319097       -1.7064282207
 H          3.7719100200       -1.1381144403       -1.2707354599
 H          3.6577178197       -0.0019634493        2.1569351897
 H          1.7013648795       -0.4245771487        3.6297861297
 H         -0.2443033905       -1.6699219289        2.7621508698
 H         -1.1647479404       -3.1357427293        1.1503720402
 C         -0.3486043503       -3.7686367099       -0.7207530095
 C          0.2421013296       -5.0721494598       -0.2757781491
 C         -1.1878743303       -5.0096663599       -0.7189412492
 H         -1.4545486703       -5.4515794901       -1.6673761791
 H         -1.9599091104       -5.0909839496        0.0320483207
 H          0.9595095497       -5.5605295201       -0.9174343689
 H          0.4414299995       -5.1933444795        0.7782245510
 H         -0.0495004201       -3.3812228802       -1.6867039896
