  62
        -98.94501330
 C         -2.3687693300       -0.1963622219       -0.0926789202
 C         -1.4249323611       -0.6034233419        0.8744620289
 C         -0.9538988378       -1.9996568960        0.8088324894
 C         -1.4320939063       -2.7969165909       -0.1642613165
 C         -1.0941388719       -4.2376115156       -0.4473920243
 C          0.2768238897       -4.4132485711       -1.1164935881
 C          1.4094057026       -3.6103098786       -0.4822972185
 H          2.3041780334       -3.7655122751       -1.0924134239
 H          1.1711814935       -2.5464983255       -0.5441742831
 C          1.7516167248       -3.9917556587        0.9564100619
 H          2.6454704221       -3.4265980321        1.2332660807
 H          2.0046522046       -5.0539490271        0.9926858411
 C          0.6709131482       -3.7091577940        2.0031800821
 H          1.1488684683       -3.7633694053        2.9854615620
 H         -0.1015019512       -4.4735360224        1.9925835920
 C          0.0424323286       -2.3244409441        1.8956380361
 H         -0.4691262609       -2.0946406097        2.8379205555
 H          0.8419560297       -1.5799541218        1.8079647215
 H          0.5289727553       -5.4757738999       -1.1088032562
 H          0.1902846060       -4.0924806496       -2.1578449646
 H         -1.1532420421       -4.8223906793        0.4661200465
 H         -1.8624954991       -4.6085413225       -1.1299969443
 O         -2.3357644659       -2.3559804060       -1.0877272829
 C         -2.8081030849       -1.0590601414       -1.0931936356
 O         -3.6075343912       -0.7987601281       -2.0177737922
 O         -0.9826663259        0.1699640100        1.7664298142
 C         -2.8658243589        1.2384141449       -0.1015047584
 C         -1.6846816757        2.1780508661       -0.1443071217
 C         -1.5869263429        3.3305317977        0.6252170994
 C         -0.4523012538        4.1214552242        0.5605968225
 C          0.6138962112        3.7693356770       -0.2469335551
 C          0.5195442056        2.6246412458       -1.0303811166
 C         -0.6374758019        1.8639922923       -1.0010457855
 H         -0.7011818823        0.9811926069       -1.6203393021
 N          1.5812780483        2.2089916906       -1.8592872947
 S          2.2462540088        0.6923125551       -1.6039932873
 O          3.2918419378        0.5741450614       -2.5977528431
 O          1.2162920721       -0.3126964778       -1.6360795745
 C          2.9923961595        0.7758491079        0.0151834849
 C          2.1824362152        0.8109593906        1.1328027213
 C          2.7760781966        0.9102108262        2.3824748057
 C          4.1561730779        0.9744270003        2.4941102481
 C          4.9548347819        0.9419295861        1.3606513956
 C          4.3694040331        0.8454867543        0.1088280178
 H          4.9480197053        0.8136911221       -0.8002174776
 H          6.0282944954        0.9913229354        1.4479447405
 H          4.6100195740        1.0494307156        3.4697253460
 H          2.1453061094        0.9333659515        3.2568358459
 H          1.1094023097        0.7541049894        1.0307542012
 H          2.3258677351        2.8877209306       -1.9417797374
 H          1.5109549275        4.3694981022       -0.2723788337
 H         -0.3888399209        5.0132704512        1.1652127142
 H         -2.3952605768        3.6046712500        1.2832298674
 H         -3.4406635777        1.3574397475       -1.0320042516
 C         -3.7847735436        1.4823276804        1.0781481781
 C         -4.9014766941        2.4764409354        0.9768236243
 C         -5.2038254565        1.0089838765        0.9973495434
 H         -5.6580002187        0.5855323352        1.8805391529
 H         -5.5133074326        0.5337246625        0.0775205733
 H         -5.1534172908        3.0605245071        1.8491150021
 H         -5.0195656294        3.0031854827        0.0419272345
 H         -3.2750671122        1.3759907291        2.0289097091
