  62
        -98.94496267
 C          1.8988780933        0.7258017200       -0.1454182006
 C          2.4700161709        0.0846857446        0.9791929705
 C          3.5414762539       -0.8790704644        0.6955192407
 C          3.8794803167       -1.1278012947       -0.5831712153
 C          4.9857194869       -2.0460216897       -1.0135990102
 C          6.3112624129       -1.2857271271       -1.1606329241
 C          6.6565499884       -0.4081469770        0.0425842861
 H          7.6252012976        0.0539358073       -0.1595612447
 H          5.9245441593        0.3993136487        0.1165177950
 C          6.7176582610       -1.1599057933        1.3796526064
 H          7.6100058038       -0.8391916380        1.9213308137
 H          6.8167256316       -2.2308339697        1.1985212693
 C          5.5233834034       -0.9104853270        2.3025878273
 H          5.7687199697       -1.3083541912        3.2909133226
 H          5.3647394617        0.1651909454        2.4130419478
 C          4.1988693773       -1.5509263230        1.8683987159
 H          4.3519598702       -2.6136308686        1.6687008874
 H          3.4956018888       -1.4562107161        2.7012188272
 H          6.2467727905       -0.6462038063       -2.0439790249
 H          7.1091061038       -2.0122947363       -1.3249203654
 H          5.0927633732       -2.8464290821       -0.2839174366
 H          4.7164952009       -2.4799159788       -1.9781678264
 O          3.2738544181       -0.5294730504       -1.6401101379
 C          2.2755841194        0.4164988288       -1.4527738954
 O          1.8145484110        0.8915642868       -2.5067397056
 H         -0.3306223733       -0.6178791654        0.3975857924
 C         -0.9173267547       -0.0031056300       -0.2739342058
 C         -0.4786564466        1.2830442806       -0.5675043249
 C         -1.2497888309        2.0673239958       -1.4142046896
 C         -2.4068283402        1.5588289908       -1.9804938418
 C         -2.8254835130        0.2704037798       -1.7072392521
 C         -2.0743049799       -0.5144183325       -0.8401867539
 N         -2.5005221518       -1.8178180754       -0.5377396980
 S         -4.1271956591       -2.0711916444       -0.2417776471
 O         -4.1768379981       -3.2187100492        0.6371192009
 O         -4.8332316600       -2.2080281221       -1.4915092993
 C         -4.6885562258       -0.6059983500        0.6086454946
 C         -4.0686489111       -0.2614873350        1.7935191637
 C         -4.4734470494        0.8882240111        2.4517717479
 C         -5.4865480805        1.6697389305        1.9172109078
 C         -6.1032372791        1.3069854293        0.7301092231
 C         -5.7009075086        0.1590350133        0.0662718256
 H         -6.1498825679       -0.1583921525       -0.8607921381
 H         -6.8920681463        1.9152297391        0.3178299334
 H         -5.7964472453        2.5659676093        2.4310170912
 H         -3.9944094734        1.1711346602        3.3754507147
 H         -3.2860812432       -0.8911474798        2.1862731587
 H         -1.9198655399       -2.2988158543        0.1326147173
 H         -3.7110488952       -0.1458868918       -2.1592083387
 H         -2.9884245909        2.1743351412       -2.6494231967
 H         -0.9392395257        3.0729950272       -1.6434679646
 C          0.8036436987        1.7543796510        0.0732624532
 H          0.6482668485        1.7858338323        1.1619908361
 C          1.2554115198        3.1215561305       -0.3937881084
 C          0.6914646471        4.3583056949        0.2373954467
 C          2.1061749350        3.9523208060        0.5180863212
 H          2.9077640838        4.5338122497        0.0878022043
 H          2.3392476763        3.5421586668        1.4900604952
 H          0.5225558256        5.2239025258       -0.3850341625
 H         -0.0368949528        4.2301341662        1.0234974069
 H          1.4885973990        3.1441073157       -1.4522853358
 O          2.0955279714        0.3029113287        2.1637874572
