  62
        -98.93633513
 C         -2.0856263624       -1.5833538461        0.0447190040
 C         -1.7789116731       -0.4920732374       -0.8055491013
 C         -2.8119740882        0.5542193125       -0.8992573894
 C         -3.9675023208        0.4143338297       -0.2267782187
 C         -5.0776210244        1.4236422716       -0.1989493200
 C         -4.9074183315        2.4031031588        0.9708498637
 C         -3.5073474721        3.0090792287        1.0696330075
 H         -3.5157231332        3.7097458710        1.9072771040
 H         -2.7934027484        2.2201088309        1.3172040650
 C         -3.0407611209        3.7335316513       -0.2004295551
 H         -3.8999696888        3.9655359805       -0.8307890415
 H         -2.5854414177        4.6835962273        0.0864027886
 C         -2.0000655761        2.9687484315       -1.0203169329
 H         -1.1820857491        2.6497131916       -0.3701164814
 H         -1.5852297299        3.6553301928       -1.7626817687
 C         -2.5148576200        1.7380613925       -1.7764907703
 H         -3.3914816133        2.0068177026       -2.3694963775
 H         -1.7243804306        1.4132774915       -2.4591312229
 H         -5.6451421293        3.2004333375        0.8628166258
 H         -5.1174014461        1.8704285454        1.9013208737
 H         -5.0938330043        1.9662277920       -1.1421239583
 H         -6.0229394303        0.8911123347       -0.0808217426
 O         -4.2387201574       -0.6614457945        0.5553620880
 C         -3.3084019159       -1.6700345131        0.7190089549
 O         -3.6812678910       -2.5870693407        1.4795582423
 H          1.1265799062       -1.9556788440       -1.1829823079
 C          1.2515496785       -1.8992482231       -0.1162169806
 C          0.2179035061       -2.2592586793        0.7346736688
 C          0.4198934675       -2.1049913797        2.1056801617
 C          1.6154034104       -1.6237158486        2.6046894511
 C          2.6477783866       -1.2818206708        1.7490151411
 C          2.4555378351       -1.4133744999        0.3813044952
 N          3.4872024482       -1.0808254762       -0.5132907996
 S          4.3900779153        0.3067243080       -0.2922896453
 O          5.0765004594        0.5043722948       -1.5486253388
 O          5.2286136898        0.1506378170        0.8706304286
 C          3.2215347583        1.6256410969       -0.0251218425
 C          2.9566637412        2.0640436426        1.2561943776
 C          2.0290986949        3.0775220377        1.4381168571
 C          1.3896229392        3.6340848351        0.3416536958
 C          1.6687291206        3.1834572963       -0.9397202466
 C          2.5886115770        2.1658443540       -1.1268856174
 H          2.8364155798        1.7949657701       -2.1083398378
 H          1.1699239667        3.6174769461       -1.7911200223
 H          0.6708792267        4.4257193567        0.4850293839
 H          1.8095448618        3.4300774756        2.4331961494
 H          3.4856216936        1.6182252367        2.0822182394
 H          3.2227015992       -1.1757224051       -1.4830474671
 H          3.5934609730       -0.9222261671        2.1198167634
 H          1.7483294503       -1.5188585559        3.6708132579
 H         -0.3815404416       -2.3653767257        2.7834500448
 C         -1.1336842411       -2.7525742833        0.2827071875
 H         -1.5693912659       -3.2774647709        1.1465562836
 C         -1.2130035681       -3.7587210261       -0.8613418854
 C         -0.7452899181       -3.5197926801       -2.2646358754
 C         -0.0422474320       -4.5232733744       -1.4004530936
 H         -0.1808198552       -5.5708274817       -1.6234138565
 H          0.9389700642       -4.2833327444       -1.0219768386
 H         -1.3706784991       -3.8866426461       -3.0666352910
 H         -0.2717075393       -2.5799934860       -2.4957538888
 H         -2.1446955675       -4.3141336444       -0.7829248407
 O         -0.7135282377       -0.3738029108       -1.4624288387
