  62
        -98.94283450
 C         -1.1044906545       -1.3953454198        0.4042534241
 C         -1.4310474307       -0.5688176688       -0.6988696000
 C         -2.4371099715        0.4707463153       -0.4401701676
 C         -2.9401365983        0.6320658219        0.7957996378
 C         -3.9732336699        1.6450129200        1.2096366720
 C         -5.4177631296        1.2040982428        0.9343241416
 C         -5.8346989678        1.2216443376       -0.5370039650
 H         -6.9203881794        1.1086364274       -0.5629134359
 H         -5.5994648712        2.1946031878       -0.9694613996
 C         -5.2041932745        0.1112736189       -1.3891930283
 H         -4.8129974919       -0.6719362992       -0.7355472424
 H         -5.9735141541       -0.3491643766       -2.0133702715
 C         -4.0873728304        0.5826155820       -2.3210014305
 H         -4.4976749366        1.2668184956       -3.0670342131
 H         -3.6901573913       -0.2890649767       -2.8474565573
 C         -2.9213021551        1.2783047500       -1.6062166714
 H         -2.0931212442        1.3732620452       -2.3124436220
 H         -3.2221081880        2.2735737536       -1.2814748076
 H         -5.5616461729        0.2007829186        1.3419272470
 H         -6.0757058218        1.8820082158        1.4829743016
 H         -3.8592954249        1.7861029309        2.2866895451
 H         -3.7845896514        2.5945662169        0.7080681513
 O         -2.5366407210       -0.1253367050        1.8492222798
 C         -1.6397858765       -1.1637183707        1.6756952375
 O         -1.3967277484       -1.8059691747        2.7165808409
 H          1.1346591922       -0.8311999662       -1.2601016500
 C          1.7752636488       -1.2123029762       -0.4780132485
 C          1.2675544498       -2.1483800244        0.4135572350
 C          2.0986651512       -2.6263775618        1.4188862708
 C          3.4053788451       -2.1793400159        1.5265943867
 C          3.9076352009       -1.2461983938        0.6365999245
 C          3.0808348214       -0.7614949304       -0.3682292687
 N          3.5698481998        0.2279741758       -1.2564950703
 S          3.7240582873        1.7420496863       -0.5565808729
 O          3.9989168952        2.6575889344       -1.6396684824
 O          4.7173358194        1.6644774601        0.4837731253
 C          2.1264846872        2.0974440388        0.1556720972
 C          1.8035418995        1.5492374431        1.3811112722
 C          0.5481397171        1.7942522629        1.9133415663
 C         -0.3540474081        2.5841407325        1.2184679583
 C         -0.0184972274        3.1186440724       -0.0155587642
 C          1.2306086139        2.8673184540       -0.5582364220
 H          1.5333054907        3.2668165642       -1.5129505964
 H         -0.7262225440        3.7268455148       -0.5551602393
 H         -1.3236272028        2.7829914271        1.6459537856
 H          0.2746166002        1.3621109932        2.8634572195
 H          2.5339267029        0.9527579788        1.9034092926
 H          2.9947895560        0.3160413813       -2.0842831224
 H          4.9136433564       -0.8683650644        0.7192230996
 H          4.0385233957       -2.5590318467        2.3140808418
 H          1.7098897549       -3.3409211878        2.1297512273
 C         -0.1672668086       -2.5906705103        0.3038970320
 H         -0.3943704293       -3.2038202647        1.1894652681
 C         -0.4476534720       -3.4451950920       -0.9275329264
 C          0.5537550842       -3.7068607116       -2.0094383253
 C          0.1881287675       -4.7984087224       -1.0523713499
 H         -0.4109181882       -5.6242618709       -1.4050198823
 H          0.9192470795       -5.0704886718       -0.3057480065
 H          0.1888438854       -3.7608257084       -3.0240399524
 H          1.5342847392       -3.2655013885       -1.9245139391
 H         -1.4817407396       -3.3686320732       -1.2475337427
 O         -0.9296595939       -0.6763450523       -1.8482705318
