  62
        -98.93790665
 C          2.3073347832        1.3660476094       -0.0011398481
 C          2.9542862206        0.5057031907        0.9167641347
 C          3.6389816194       -0.6588143351        0.3417690409
 C          3.6088673403       -0.8567750767       -0.9886315091
 C          4.2976941984       -1.9584610308       -1.7499756196
 C          3.7933573887       -3.3902017434       -1.4845568910
 C          4.5781586213       -4.1473541268       -0.4059324328
 H          4.7011065224       -5.1841187072       -0.7253369884
 H          5.5790767162       -3.7198764857       -0.3354293652
 C          3.9380740649       -4.1827033572        0.9850226505
 H          3.1307781132       -4.9188779166        0.9878978589
 H          4.6961694455       -4.5223470770        1.6939699364
 C          3.3515775852       -2.8617722837        1.4836712451
 H          3.1114837698       -2.9740508705        2.5431575433
 H          2.4041553639       -2.6662389606        0.9732533336
 C          4.2677595602       -1.6371307074        1.2909563538
 H          4.3944687290       -1.1142570541        2.2410692436
 H          5.2490349912       -1.9437941892        0.9324852683
 H          2.7313983792       -3.3625593464       -1.2387743471
 H          3.8910286059       -3.9378589851       -2.4233180243
 H          4.1470171502       -1.7189048238       -2.8045162560
 H          5.3694827062       -1.9087477396       -1.5448285120
 O          2.9533881417       -0.0178767196       -1.8358484162
 C          2.2641780599        1.0916414980       -1.3685344902
 O          1.6798270340        1.7402922791       -2.2558255512
 O          2.9602398476        0.7021621095        2.1631468073
 C          1.5540740945        2.5724860648        0.5351354108
 C          0.0773309077        2.3332185686        0.3375500830
 C         -0.7507832207        3.1501056691       -0.4189088733
 C         -2.0838260639        2.8195710616       -0.5977891176
 C         -2.6175337051        1.6784324987       -0.0277942858
 C         -1.7981752632        0.8583322378        0.7376514320
 C         -0.4675478808        1.1936965878        0.9189970683
 H          0.1726598132        0.5496325515        1.5102393535
 N         -2.3332388071       -0.3134092051        1.3173680643
 S         -2.8571804321       -1.4814007246        0.2219720232
 O         -2.7892093794       -2.7362417023        0.9400698664
 O         -2.1172823181       -1.4112025809       -1.0183340877
 C         -4.5638907086       -1.0573079995       -0.0510997902
 C         -5.4218347184       -1.0887904295        1.0311120351
 C         -6.7526933067       -0.7542297351        0.8390610173
 C         -7.2003649792       -0.3980957956       -0.4246420973
 C         -6.3268870083       -0.3750169278       -1.5012746831
 C         -4.9936790239       -0.7073798052       -1.3159020934
 H         -4.2754641719       -0.6969872065       -2.1203710510
 H         -6.6764224674       -0.0979038126       -2.4828494936
 H         -8.2363724681       -0.1368107162       -0.5717724642
 H         -7.4350534761       -0.7714079354        1.6734979161
 H         -5.0324873266       -1.3759992121        1.9934731134
 H         -1.7010505123       -0.7427267196        1.9794569957
 H         -3.6533387707        1.4167514271       -0.1704245140
 H         -2.7152138086        3.4596852409       -1.1947949179
 H         -0.3496383500        4.0361776289       -0.8821143031
 H          1.7552318890        2.5826548755        1.6163766185
 C          2.0614452123        3.8625196564       -0.0692595943
 C          1.8399350347        5.1584059631        0.6503860466
 C          3.2140568415        4.5652448764        0.5809462581
 H          3.9508771825        5.0378060180       -0.0508982408
 H          3.6270750245        4.1217211519        1.4752334044
 H          1.6340159231        6.0430993019        0.0674868026
 H          1.3190741607        5.1209740551        1.5950659450
 H          2.0239467645        3.8629131330       -1.1521580598
