  62
        -98.94608846
 C          0.9600022176        1.6520688901        0.6192603648
 C          1.7310953367        1.5571013424       -0.5639593924
 C          2.8638149498        0.6215895943       -0.5149163502
 C          3.0866624850       -0.0873458609        0.6067007250
 C          4.2080984107       -1.0683331169        0.7894158337
 C          3.7903533282       -2.4925843928        0.4010714212
 C          3.0784635898       -2.5820383245       -0.9481296606
 H          2.8502851941       -3.6342930104       -1.1271536253
 H          2.1242682643       -2.0535196319       -0.8846592323
 C          3.8892814057       -2.0313979522       -2.1295448310
 H          3.8075213308       -2.7293273725       -2.9652882500
 H          4.9444101578       -1.9717665410       -1.8597575471
 C          3.4220449359       -0.6683324312       -2.6430500073
 H          3.9080179056       -0.4830361292       -3.6047619267
 H          2.3437796488       -0.6918866248       -2.8208177161
 C          3.7340622884        0.5289633439       -1.7364900399
 H          4.7903832119        0.5161692616       -1.4596882176
 H          3.5405422477        1.4400737315       -2.3102492357
 H          4.6827169323       -3.1209238385        0.3868164560
 H          3.1159370871       -2.8724521913        1.1696949001
 H          4.5013927175       -1.0586478559        1.8406859664
 H          5.0559230900       -0.7496637569        0.1857136300
 O          2.2909496046       -0.0071469436        1.7045900179
 C          1.2110775740        0.8600912743        1.7387595853
 O          0.5623921376        0.8329828395        2.8052146238
 O          1.4988919687        2.2300055422       -1.6017957541
 C         -0.2008470152        2.6277603057        0.6859387864
 C         -1.2340134136        2.2762485975       -0.3569394214
 C         -1.7618524083        3.1900734422       -1.2588106293
 C         -2.7189631654        2.7913564645       -2.1761286494
 C         -3.1886275974        1.4914674721       -2.1923714218
 C         -2.6738220025        0.5704538390       -1.2859732083
 C         -1.6926121263        0.9648705992       -0.3923828800
 H         -1.2866039949        0.2463961309        0.3045372332
 N         -3.1291052025       -0.7563605659       -1.2667288295
 S         -3.3571164490       -1.5475358451        0.1932204815
 O         -4.4042252002       -2.5092852036       -0.0826135344
 O         -3.6141837692       -0.6174335331        1.2663721930
 C         -1.8434465743       -2.4423913010        0.4679416881
 C         -1.0233159707       -2.1270505021        1.5320464760
 C          0.1207807057       -2.8813065653        1.7425911261
 C          0.4191742683       -3.9359386768        0.8943855928
 C         -0.4110120001       -4.2357547234       -0.1754013479
 C         -1.5532818402       -3.4841011603       -0.3923057230
 H         -2.2342862397       -3.6944244922       -1.2000470588
 H         -0.1721881488       -5.0540649291       -0.8351645008
 H          1.3014517953       -4.5310368613        1.0702720768
 H          0.7679979486       -2.6299636224        2.5686412418
 H         -1.2789242783       -1.3021208104        2.1805448690
 H         -3.8760715852       -0.9560784479       -1.9161618165
 H         -3.9465228756        1.1872371281       -2.8983178186
 H         -3.1144982118        3.5078623041       -2.8801000966
 H         -1.4212025228        4.2121658072       -1.2495566386
 H         -0.6661252519        2.4824158374        1.6727140936
 C          0.3057332434        4.0517605508        0.5911132646
 C         -0.4673703945        5.1697074853        1.2212207859
 C          0.8261835325        4.7177681982        1.8278683454
 H          1.6896171549        5.3605142916        1.7438594702
 H          0.7913365588        4.1520682583        2.7479535822
 H         -0.4909402092        6.1270562651        0.7228569232
 H         -1.3830132820        4.9166778514        1.7345152019
 H          0.8271102337        4.2479986652       -0.3384926469
