  62
        -98.94308278
 C         -2.0603324000       -1.3804218912        0.3398880404
 C         -2.0617519903       -0.2361213214        1.1806999907
 C         -3.0605715305        0.7929150985        0.8794707310
 C         -3.9203533105        0.6055262985       -0.1380697290
 C         -5.0240367207        1.5413818584       -0.5502293188
 C         -4.5676041610        2.6742701887       -1.4795213585
 C         -3.7291428012        3.7643313787       -0.8109723283
 H         -3.6634399314        4.5947339389       -1.5168722981
 H         -4.2511309713        4.1304828184        0.0736085718
 C         -2.3079474711        3.3257913289       -0.4299047784
 H         -2.0513048909        2.4111207091       -0.9692493187
 H         -1.5977747313        4.0932400892       -0.7443891483
 C         -2.0936052510        3.0925394786        1.0658199915
 H         -1.0696456709        2.7402174488        1.2137456314
 H         -2.2114462912        4.0350296585        1.6049938717
 C         -3.0404145008        2.0563652583        1.6852170413
 H         -4.0457623408        2.4674988080        1.7747884514
 H         -2.6724601407        1.8086820081        2.6837801212
 H         -4.0063902609        2.2394712290       -2.3098864786
 H         -5.4660742111        3.1382395886       -1.8931338784
 H         -5.7622282606        0.9366596483       -1.0814990289
 H         -5.4958472008        1.9643765280        0.3371646113
 O         -3.8894535803       -0.5030602513       -0.9207526393
 C         -2.9419768800       -1.5017568311       -0.7347571396
 O         -3.0141414099       -2.4125101309       -1.5824926998
 O         -1.2659510403       -0.0902899015        2.1470908807
 C         -1.0133400298       -2.4375075210        0.6489314001
 C          0.2309355701       -2.1798134406       -0.1668374398
 C          0.2279838701       -2.2995009602       -1.5524599299
 C          1.3739958900       -2.0308917898       -2.2787669298
 C          2.5421474700       -1.6436897997       -1.6444035498
 C          2.5528769200       -1.5130749200       -0.2618819697
 C          1.3996594600       -1.7814197105        0.4653831502
 H          1.4067269601       -1.6657375107        1.5406891703
 N          3.7362786399       -1.1397314599        0.4019940103
 S          4.5621499496        0.2391310704       -0.0583990994
 O          5.0116374696        0.0921650008       -1.4189661894
 O          5.5885493296        0.4128159303        0.9428357707
 C          3.3771082793        1.5666072201        0.0546967510
 C          2.5220515692        1.8032350401       -1.0031248289
 C          1.5853674090        2.8181175599       -0.8900873987
 C          1.5210369389        3.5746487496        0.2698929515
 C          2.3819834890        3.3193187895        1.3260039014
 C          3.3166798692        2.3024486998        1.2214497112
 H          4.0112910692        2.0767282697        2.0145819211
 H          2.3255043188        3.9072775393        2.2279619316
 H          0.7967557887        4.3697619094        0.3510291717
 H          0.9088709989        3.0146225799       -1.7065418286
 H          2.6069836193        1.2022613704       -1.8937469691
 H          3.6562103499       -1.1655885202        1.4085567703
 H          3.4406948499       -1.4321295294       -2.2011686197
 H          1.3602306000       -2.1276071296       -3.3541226198
 H         -0.6837205398       -2.5887868603       -2.0527063799
 H         -0.7544232498       -2.2817325112        1.7051818702
 C         -1.4966538395       -3.8635174311        0.4843760898
 C         -0.7626673792       -4.9599808411        1.1944097595
 C         -2.1338784993       -4.5594020015        1.6477714597
 H         -2.9590642192       -5.2288234217        1.4570383095
 H         -2.2247373994       -4.0088617918        2.5729445398
 H         -0.6425477990       -5.9075558110        0.6923983193
 H          0.0771987007       -4.6818293811        1.8132741596
 H         -1.8945070595       -4.0782955810       -0.4980586102
