  62
        -98.94459306
 C         -1.6504486409       -1.4552881594        0.1975311401
 C         -1.8147978506       -0.3789870090        1.1094130496
 C         -3.0471080204        0.4054713713        0.9802077593
 C         -3.9250647805        0.1052168711        0.0057143795
 C         -5.2515261903        0.7745911414       -0.2335784108
 C         -5.1673918200        2.0768940510       -1.0411817214
 C         -4.5866334997        3.2729951112       -0.2861571819
 H         -4.7879303494        4.1610599110       -0.8883879423
 H         -5.1150418096        3.3950900817        0.6598805781
 C         -3.0762293997        3.1832457209       -0.0274765419
 H         -2.6445064299        2.4252041505       -0.6856382116
 H         -2.6072292794        4.1374662106       -0.2779797623
 C         -2.7011271297        2.8592682014        1.4186643782
 H         -3.0397465895        3.6653894518        2.0733663279
 H         -1.6120918198        2.8047940711        1.4950413583
 C         -3.2769366601        1.5357970118        1.9386219588
 H         -2.7686996801        1.2855178120        2.8733982089
 H         -4.3427798301        1.6447057721        2.1408091388
 H         -4.5783769000        1.8922680505       -1.9423139713
 H         -6.1827215799        2.3306237511       -1.3542930615
 H         -5.8601815805        0.0612931813       -0.7934757505
 H         -5.7384061702        0.9699808519        0.7226100091
 O         -3.7052144608       -0.8941135893       -0.8856639001
 C         -2.5757268310       -1.6991128896       -0.8187044898
 O         -2.5376546012       -2.5672923400       -1.7115414294
 O         -0.9748045105       -0.1015402688        2.0080018695
 C         -0.4296863811       -2.3367478796        0.4004433905
 C          0.7088521890       -1.9595144503       -0.5164016797
 C          0.6098285789       -2.0871580709       -1.8982885497
 C          1.6794329790       -1.7521936715       -2.7078837198
 C          2.8578266991       -1.2724210816       -2.1617744700
 C          2.9643975992       -1.1360363711       -0.7835103301
 C          1.8946967491       -1.4891555004        0.0281366701
 H          1.9940807391       -1.3781685800        1.0974805900
 N          4.1455313193       -0.6522294711       -0.1923740803
 S          4.0312150597        0.5974386094        0.9196916991
 O          5.3795490698        1.1102178091        1.0270833689
 O          3.4352935095        0.1211805801        2.1399088493
 C          2.9923987100        1.7926444893        0.1010168486
 C          1.6205421100        1.7482957997        0.2488320587
 C          0.8459714302        2.6217671296       -0.4993836917
 C          1.4454730304        3.5206293091       -1.3670534821
 C          2.8257429704        3.5589157487       -1.4948188321
 C          3.6062011802        2.6811603288       -0.7617399418
 H          4.6822810602        2.6757100385       -0.8277871318
 H          3.2917366706        4.2624931383       -2.1656371824
 H          0.8316342706        4.1943012590       -1.9438218924
 H         -0.2271573698        2.5869652800       -0.3997475917
 H          1.1687421698        1.0506076202        0.9371488790
 H          4.8852575493       -0.4602689316       -0.8533413404
 H          3.6898081192       -1.0084119521       -2.7968140502
 H          1.5929066889       -1.8593564720       -3.7785165798
 H         -0.3140104212       -2.4436530509       -2.3272673095
 H         -0.0999720011       -2.1318015593        1.4288702104
 C         -0.7327375715       -3.8186741396        0.2862952511
 C          0.2009496782       -4.7981145896        0.9289854615
 C         -1.1653449217       -4.5758845790        1.5038723914
 H         -1.9074387919       -5.3518817888        1.3908622618
 H         -1.2447248816       -4.0288389786        2.4323627812
 H          0.4003291280       -5.7291511899        0.4211786019
 H          1.0484213783       -4.4011447896        1.4680364613
 H         -1.1836254116       -4.0962974899       -0.6571608788
