  62
        -98.94703050
 C          2.2996448928       -0.4622635586        0.4698727942
 C          1.4416996064        0.4404976455        1.1422457816
 C          1.6763538890        1.8695934217        0.8877432842
 C          2.6476344371        2.2429933354        0.0370900366
 C          2.9613015000        3.6593136285       -0.3474323497
 C          2.1843698782        4.0881589262       -1.5993088715
 C          0.6859422870        3.7898119855       -1.5360664299
 H          0.2378633203        4.1836341855       -2.4516312065
 H          0.5255572104        2.7084693513       -1.5480992244
 C         -0.0322978981        4.3876431459       -0.3183027631
 H         -0.9709910654        4.8339970346       -0.6535681007
 H          0.5713314180        5.1854734342        0.1172472626
 C         -0.3872008601        3.3617615481        0.7594615119
 H         -0.8732579513        2.5058706629        0.2843976840
 H         -1.1089793450        3.8172587666        1.4431901935
 C          0.7893458965        2.8508913663        1.6017035427
 H          1.3719111304        3.6969949004        1.9727551858
 H          0.3772642895        2.3146524727        2.4613909759
 H          2.3360641748        5.1593477535       -1.7475009431
 H          2.6001808539        3.5632805310       -2.4626848045
 H          2.7195602420        4.3174548455        0.4849965527
 H          4.0307931763        3.7283848913       -0.5549152494
 O          3.4472595353        1.3513647022       -0.6022859898
 C          3.2841722178       -0.0089992807       -0.4135293830
 O          4.0798974163       -0.7123031854       -1.0704494285
 H         -0.3882286357       -1.2288921470        0.2919316103
 C         -0.1054271049       -1.9766899147       -0.4281336259
 C          1.1811026762       -2.4962208533       -0.4085557372
 C          1.5223763384       -3.4735070448       -1.3352486389
 C          0.5994575365       -3.9046960681       -2.2717874114
 C         -0.6634818924       -3.3439548153       -2.3226118642
 C         -1.0144091912       -2.3635077277       -1.4000753629
 N         -2.2796769372       -1.7581745238       -1.4406277614
 S         -2.4470569057       -0.0864124519       -1.2972444619
 O         -3.3354459067        0.2916779425       -2.3800216551
 O         -1.1655212747        0.5721473553       -1.2700311572
 C         -3.3355738645        0.1045504212        0.2357035936
 C         -2.6679629739        0.2905383271        1.4287675486
 C         -3.4087743641        0.4118516508        2.5954615635
 C         -4.7919533183        0.3422534748        2.5535750608
 C         -5.4480098821        0.1532352025        1.3463224818
 C         -4.7153115844        0.0329994012        0.1777344514
 H         -5.1835089691       -0.0996134480       -0.7836047151
 H         -6.5243304975        0.1004290718        1.3129157944
 H         -5.3602418962        0.4373769705        3.4655149704
 H         -2.8921239784        0.5580503304        3.5306998873
 H         -1.5900087538        0.3413079270        1.4510506961
 H         -2.8683314465       -2.0960282504       -2.1887331562
 H         -1.3726063817       -3.6548444097       -3.0753511140
 H          0.8739179556       -4.6668859994       -2.9854915126
 H          2.5232523363       -3.8797668142       -1.3326173632
 C          2.1942084828       -1.9765190768        0.5845522468
 H          3.1783905772       -2.3662073328        0.2890349191
 C          1.8857517219       -2.4723321457        1.9832868726
 C          2.2971200788       -3.8606088112        2.3674306646
 C          3.0091680376       -2.6784349555        2.9521500270
 H          2.8440753478       -2.4336035327        3.9904224634
 H          4.0107799858       -2.4640518707        2.6078139074
 H          2.8195421772       -4.4514420135        1.6302838394
 H          1.6411951829       -4.4328145371        3.0051271662
 H          0.9520929533       -2.0951702511        2.3776469246
 O          0.5208739024        0.0982506071        1.9319585924
