  62
        -98.94308041
 C          1.7089036044        1.2556639955        0.3447889310
 C          1.3718440663        0.1750541722       -0.5012965369
 C          1.9036011705       -1.1432647346       -0.1243175625
 C          2.6332641783       -1.2616844947        0.9976635477
 C          3.2206152825       -2.5107859644        1.6058567202
 C          3.8941548875       -3.5140180060        0.6588638672
 C          4.5852986385       -2.8918196574       -0.5634254208
 H          4.6549524915       -1.8095882781       -0.4416552185
 H          5.6037081134       -3.2791051692       -0.6290313889
 C          3.8739599435       -3.2138606100       -1.8798052166
 H          4.5799175821       -3.0769500036       -2.7023466162
 H          3.5821517243       -4.2661917097       -1.8705492814
 C          2.6467130231       -2.3572564496       -2.1886828435
 H          2.9586181585       -1.3368524218       -2.4265037949
 H          2.1688934709       -2.7647995533       -3.0825375897
 C          1.5992596419       -2.2724271398       -1.0661233506
 H          0.6333482324       -2.0347476422       -1.5199052303
 H          1.5035342960       -3.2182340239       -0.5379858620
 H          4.6275539771       -4.0625995564        1.2524198741
 H          3.1586987754       -4.2420374828        0.3192172474
 H          3.9477930029       -2.1544675593        2.3399239909
 H          2.4247134927       -3.0162343952        2.1616590512
 O          2.9197210390       -0.1949615220        1.7976547048
 C          2.4604020284        1.0766253529        1.5027261395
 O          2.7851944979        1.9503053627        2.3347993969
 O          0.6459184733        0.3033516490       -1.5225907624
 C          1.1725720237        2.6428445121        0.0419898654
 C         -0.3321304910        2.5918690805       -0.0741820693
 C         -1.0495990880        3.2909378080       -1.0370616285
 C         -2.4281185242        3.1812615467       -1.1023336585
 C         -3.1159707220        2.3586222794       -0.2290054778
 C         -2.4076654945        1.6644837978        0.7449413144
 C         -1.0334523939        1.8097882325        0.8347427396
 H         -0.4988265006        1.2657619625        1.6001883987
 N         -3.0541379230        0.7960091785        1.6499435259
 S         -2.6419821926       -0.8279641851        1.5780220482
 O         -3.4937436671       -1.4718232467        2.5556522127
 O         -1.2228947865       -0.9895410773        1.7631012574
 C         -3.1391099697       -1.3370530293       -0.0586493489
 C         -4.3432343789       -1.9992793445       -0.2065638397
 C         -4.7707321654       -2.3416191836       -1.4789072627
 C         -3.9951459592       -2.0075031922       -2.5791193038
 C         -2.7925025435       -1.3386453458       -2.4134166760
 C         -2.3553666644       -0.9957131378       -1.1425972001
 H         -1.4198122188       -0.4781509852       -0.9952456792
 H         -2.1826006122       -1.0737344968       -3.2623362615
 H         -4.3279803758       -2.2700761707       -3.5709295153
 H         -5.7050856292       -2.8636661498       -1.6083129510
 H         -4.9101802951       -2.2392553249        0.6784974244
 H         -4.0621510837        0.8773458076        1.6395345625
 H         -4.1880351364        2.2510142086       -0.2975362260
 H         -2.9718036604        3.7288943928       -1.8568029955
 H         -0.5276830976        3.9171995738       -1.7420237518
 H          1.4320487471        3.2671323390        0.9100726734
 C          1.8496564804        3.2097790908       -1.1895375776
 C          2.0775405969        4.6851901040       -1.3193567859
 C          3.2335461668        3.7684030094       -1.0580316068
 H          3.9416354214        3.5872535589       -1.8527126708
 H          3.6750064240        3.7647282484       -0.0716501515
 H          1.9962502070        5.1361810619       -2.2968688519
 H          1.7418708769        5.3167266293       -0.5106969152
 H          1.6215477125        2.6436920862       -2.0854422348
