  62
        -98.93631152
 C         -1.9690059797       -0.1595755576        1.0028170885
 C         -3.2050259229       -0.8208372961        0.7949150824
 C         -4.3792527611        0.0559938524        0.6393213054
 C         -4.2271151730        1.3909335443        0.6855642211
 C         -5.3280269106        2.3898909040        0.4793049289
 C         -5.4470409279        2.7901393072       -0.9979697996
 C         -5.4886177237        1.6019952697       -1.9589705453
 H         -5.6042792228        2.0037808760       -2.9679630110
 H         -4.5269036545        1.0846324908       -1.9279089821
 C         -6.6138785827        0.5965848937       -1.6772978436
 H         -7.3750760045        1.0588128167       -1.0477113429
 H         -7.0922830760        0.3322141911       -2.6227725238
 C         -6.1494434109       -0.7106501042       -1.0326625095
 H         -6.9761229371       -1.4247339470       -1.0778342717
 H         -5.3231544954       -1.1312616737       -1.6112805875
 C         -5.7098205794       -0.6124718667        0.4335756100
 H         -5.5943056349       -1.6320045548        0.8132871055
 H         -6.4859069875       -0.1139777020        1.0178754459
 H         -6.3497734300        3.3913604617       -1.1207163718
 H         -4.5867188997        3.4107850403       -1.2587948827
 H         -5.1006755285        3.2787349363        1.0702157712
 H         -6.2670755004        1.9645433289        0.8280639092
 O         -3.0238695431        1.9896512999        0.8796400702
 C         -1.8745510117        1.2345702414        1.0315170843
 O         -0.8369085736        1.9090127559        1.1917127849
 O         -3.3460729512       -2.0686236470        0.7365401612
 C         -0.6495124717       -0.8907045899        1.1823729586
 C          0.0423758637       -1.0875321553       -0.1424054160
 C         -0.6472308700       -1.5477534355       -1.2585542296
 C          0.0137346514       -1.7266867784       -2.4600379292
 C          1.3669146397       -1.4606934089       -2.5663483724
 C          2.0676939370       -0.9984111213       -1.4563183855
 C          1.3961343883       -0.8069824247       -0.2564658687
 H          1.9365769793       -0.4602984682        0.6102953006
 N          3.4304883499       -0.7029770696       -1.5704937253
 S          4.5742632150       -0.7726788305       -0.3560032037
 O          5.7433703203       -1.3749566072       -0.9593772674
 O          4.0544557248       -1.4268287118        0.8197549599
 C          4.9376519710        0.9378281878       -0.0012095137
 C          6.2623018596        1.3264985923        0.0572722755
 C          6.5669257231        2.6468748887        0.3466497268
 C          5.5451118609        3.5562102348        0.5723475009
 C          4.2202576203        3.1529351764        0.5067441217
 C          3.9091747941        1.8331343923        0.2171854706
 H          2.8825250292        1.5079689022        0.1588938053
 H          3.4211046967        3.8563978970        0.6797388883
 H          5.7798407426        4.5842834540        0.7988880664
 H          7.5970013561        2.9613920072        0.3949940895
 H          7.0243037142        0.5878896763       -0.1311487269
 H          3.8393264477       -0.9226885952       -2.4657379772
 H          1.8809090910       -1.6064027267       -3.5042821254
 H         -0.5286622354       -2.0854317951       -3.3220039767
 H         -1.6988734634       -1.7754878678       -1.1707121628
 H         -0.0200971112       -0.2115288448        1.7804912708
 C         -0.7743637348       -2.1883960572        1.9689337412
 C         -0.5945079612       -3.5423684515        1.3586960596
 C          0.4529780623       -2.9943780815        2.2781478367
 H          0.5521252199       -3.4233228385        3.2641143025
 H          1.3899660105       -2.6743688429        1.8445242064
 H         -1.2335644891       -4.3378961464        1.7101467111
 H         -0.3682587324       -3.6015712957        0.3055456373
 H         -1.5152791345       -2.1132363575        2.7581752398
