  62
        -98.93949921
 C          2.6338612194        1.2096351543        0.2597597761
 C          2.5194863780        0.1671301761       -0.6932969135
 C          3.7139490846       -0.6770674771       -0.8642038851
 C          4.8180351168       -0.4225345896       -0.1404951945
 C          6.0806926082       -1.2323181959       -0.1830881219
 C          6.0597634781       -2.3484209265        0.8706850343
 C          4.7765945835       -3.1794605489        0.8652288417
 H          4.8884654862       -3.9542556074        1.6268354874
 H          3.9400312720       -2.5469523680        1.1714232562
 C          4.4485800865       -3.8329212675       -0.4845324686
 H          5.3409811400       -3.8566277523       -1.1110852594
 H          4.1489197901       -4.8680863038       -0.3081276339
 C          3.3072499900       -3.1642521739       -1.2532220053
 H          2.4391080149       -3.0523795295       -0.5985390223
 H          3.0158260998       -3.8268593992       -2.0724802617
 C          3.6271903739       -1.7946383768       -1.8652373727
 H          4.5450028668       -1.8586504895       -2.4533645269
 H          2.8048174503       -1.5319686855       -2.5371739189
 H          6.9185873391       -3.0001012095        0.6999683048
 H          6.1691098314       -1.8940651300        1.8582073679
 H          6.1995485813       -1.6586270393       -1.1772666673
 H          6.9223382202       -0.5681098841        0.0207651661
 O          4.8907312132        0.5873128998        0.7642208137
 C          3.8008687296        1.4072152218        1.0032328247
 O          3.9911747197        2.2628888052        1.8906370628
 H         -0.7879576365        2.0708047079       -1.0054910275
 C         -0.8588344537        1.4298039446       -0.1403823754
 C          0.2046785557        1.3444405028        0.7430406202
 C          0.0945486672        0.4875677124        1.8347416193
 C         -1.0464542244       -0.2664875440        2.0301925900
 C         -2.1031323868       -0.1845418360        1.1401561743
 C         -2.0039678352        0.6662701614        0.0485421874
 N         -3.0644948580        0.7386207005       -0.8690833674
 S         -4.6219120467        0.9567589437       -0.2917844142
 O         -5.3476698481        1.5719339549       -1.3819882697
 O         -4.6247710907        1.6716954676        0.9638606552
 C         -5.2335880891       -0.6983611741       -0.0530570143
 C         -5.1834556577       -1.5724734727       -1.1211566406
 C         -5.6691342750       -2.8596000249       -0.9556071498
 C         -6.1971355946       -3.2477785556        0.2668528894
 C         -6.2430882646       -2.3574848601        1.3286045653
 C         -5.7575523834       -1.0687408198        1.1698469655
 H         -5.7681715824       -0.3442681040        1.9686445992
 H         -6.6538428562       -2.6612199595        2.2781086414
 H         -6.5747335614       -4.2502648776        0.3926100537
 H         -5.6341351183       -3.5551003980       -1.7787133955
 H         -4.7681303139       -1.2321896701       -2.0550757940
 H         -2.8790132114        1.3299753637       -1.6657235694
 H         -2.9949567175       -0.7728891970        1.2827038910
 H         -1.1142563537       -0.9276282513        2.8810201272
 H          0.9231764674        0.4177187271        2.5271174817
 C          1.4747112298        2.1410565808        0.5738371651
 H          1.7242798340        2.5821215878        1.5530503079
 C          1.3279859842        3.3057249996       -0.3943313076
 C          2.5335214678        3.9325039123       -1.0269991888
 C          1.5571484333        3.1698365418       -1.8685878281
 H          0.9175040636        3.7265119242       -2.5386322436
 H          1.8453588583        2.2013185394       -2.2449644760
 H          2.5649790388        5.0078549863       -1.1178999671
 H          3.4944781098        3.4836377555       -0.8215518072
 H          0.5401314454        3.9867852612       -0.0847167165
 O          1.4874629747       -0.0585219556       -1.3753466794
