  62
        -98.94389868
 C         -1.6751132206       -1.4443366484        0.5335211395
 C         -2.6155158363       -1.0274204805       -0.4404780186
 C         -3.4647232559        0.1138163946       -0.0599429653
 C         -3.2526404859        0.7420226829        1.1099031683
 C         -4.0146956545        1.9410986297        1.5942195444
 C         -3.3543898813        3.2536443161        1.1499092225
 C         -3.0018278897        3.2953211729       -0.3365511580
 H         -2.5695628796        4.2777701460       -0.5384186465
 H         -2.2325215544        2.5477873883       -0.5416766836
 C         -4.1899308110        3.0607246358       -1.2792338086
 H         -5.1272183195        3.2152512006       -0.7433232614
 H         -4.1516241292        3.7988093041       -2.0830591690
 C         -4.2050687385        1.6815133924       -1.9400872063
 H         -3.2329686052        1.4819247705       -2.3974781723
 H         -4.9475092576        1.6966247888       -2.7424293222
 C         -4.5543821653        0.5066545145       -1.0181973109
 H         -5.4777672876        0.7258806749       -0.4777701213
 H         -4.7267169495       -0.3690408462       -1.6506034369
 H         -4.0309639603        4.0760858062        1.3891690078
 H         -2.4368377210        3.3945542851        1.7259934954
 H         -5.0334374129        1.8904283949        1.2141098538
 H         -4.0438943825        1.9103721614        2.6849130092
 O         -2.2759178503        0.3709834443        1.9779044371
 C         -1.4800645579       -0.7304332594        1.7196900434
 O         -0.6398463677       -0.9729124720        2.6102741937
 O         -2.7659819793       -1.5665075388       -1.5667995266
 C         -0.7476416811       -2.6368485450        0.3398566598
 C          0.4837491602       -2.1396285549       -0.3763360250
 C          0.4900493686       -1.8600115037       -1.7386040790
 C          1.6149439342       -1.3185284679       -2.3351195133
 C          2.7457203938       -1.0311516836       -1.5894451109
 C          2.7418725591       -1.2969086860       -0.2267922318
 C          1.6211293343       -1.8586676209        0.3669354341
 H          1.6148144001       -2.0446788246        1.4325409213
 N          3.8665520118       -0.9625642495        0.5515871928
 S          4.4469473856        0.5973482195        0.3691561148
 O          5.3504569735        0.6427311342       -0.7536780892
 O          5.0225743395        0.9477958129        1.6488351309
 C          3.0193857604        1.6134258624        0.0217386031
 C          3.0357186179        2.4402616542       -1.0831698992
 C          1.9280232366        3.2286099052       -1.3492005264
 C          0.8229188651        3.1697249939       -0.5147461424
 C          0.8190563765        2.3294551730        0.5878449241
 C          1.9278604639        1.5468839026        0.8653046153
 H          1.9368642350        0.8906064599        1.7215174603
 H         -0.0436457287        2.2675896256        1.2334729194
 H         -0.0415023402        3.7798394796       -0.7231305836
 H          1.9267296080        3.8821717335       -2.2065036552
 H          3.9119397482        2.4459586156       -1.7109056590
 H          3.7540774718       -1.1834284485        1.5309155518
 H          3.6247112268       -0.5958005631       -2.0371918198
 H          1.6092200401       -1.1065532463       -3.3933612589
 H         -0.4020810762       -2.0417079920       -2.3172654014
 H         -0.4417941307       -2.9422637630        1.3498956569
 C         -1.3908630064       -3.8265839244       -0.3384659866
 C         -0.7308219168       -5.1657591580       -0.2128998258
 C         -2.0186932537       -4.8944444634        0.5037335578
 H         -2.9201357583       -5.3683300484        0.1454575435
 H         -1.9892306171       -4.7711540503        1.5769153602
 H         -0.7450881053       -5.8287792925       -1.0641037125
 H          0.1733864294       -5.2252853809        0.3744839468
 H         -1.8769547503       -3.5898845524       -1.2743607625
