  62
        -98.93194662
 C         -2.8031094098       -0.3603911486       -0.0985312099
 C         -2.2578835792        0.5452022014       -1.0381818696
 C         -2.2305635383        1.9681510112       -0.6454208892
 C         -2.6671813781        2.3334251711        0.5730593710
 C         -2.7653778472        3.6926256110        1.2331943314
 C         -2.0280517664        4.8971204107        0.6542211018
 C         -0.5038977965        4.8144670596        0.7316089518
 H         -0.0902823959        5.6788996395        0.2073298621
 H         -0.2048141564        4.8862292191        1.7803746819
 C          0.1268848927        3.5447475694        0.1639685414
 H          1.2108479328        3.6353779187        0.2821862115
 H         -0.1772641179        2.6772979094        0.7553443411
 C         -0.1626820174        3.2718898101       -1.3108976087
 H          0.4621694620        2.4277852598       -1.6164050189
 H          0.1266501732        4.1381123101       -1.9092989284
 C         -1.6200463776        2.9091809111       -1.6447138688
 H         -1.6241183580        2.3830875015       -2.6039009690
 H         -2.2339606271        3.7992280016       -1.7565749886
 H         -2.3395874459        5.7635081807        1.2440942421
 H         -2.3487175363        5.0806031012       -0.3669805481
 H         -3.8348401771        3.9275742916        1.2747133414
 H         -2.4434282673        3.5399738704        2.2683929214
 O         -3.1785832287        1.4217657012        1.4521100306
 C         -3.2457496096        0.0756309613        1.1520792302
 O         -3.7232622701       -0.6283557687        2.0649077500
 O         -1.8036939694        0.2090032214       -2.1635514597
 C         -2.8616628208       -1.8656139485       -0.3179038604
 C         -1.5609285012       -2.4659551495        0.1516428494
 C         -1.5183765719       -3.4721832598        1.1079936591
 C         -0.3048324522       -3.9363742008        1.5885638790
 C          0.8876710582       -3.4010293414        1.1344850492
 C          0.8520732988       -2.4015462311        0.1718648295
 C         -0.3608988608       -1.9516255101       -0.3204109304
 H         -0.3789360003       -1.1705120399       -1.0665810801
 N          2.0634388892       -1.8047140017       -0.2685929903
 S          2.6845455399       -0.7752661225        0.9293272701
 O          3.2263865293       -1.5993509932        1.9801465298
 O          1.6799600205        0.1864282880        1.3301518004
 C          4.0010123604        0.0346375769        0.0431174004
 C          5.2214441100       -0.6017391838       -0.0760738198
 C          6.2280039805        0.0150289358       -0.8019986195
 C          5.9974732813        1.2478640161       -1.3944341891
 C          4.7665873617        1.8738026169       -1.2660790590
 C          3.7553744913        1.2614963173       -0.5425944892
 H          2.7839178615        1.7121771779       -0.4098646991
 H          4.5891108923        2.8325254771       -1.7263116287
 H          6.7823382416        1.7259234758       -1.9589640490
 H          7.1869104301       -0.4668063048       -0.9040079897
 H          5.3550724494       -1.5552009741        0.4071990999
 H          1.8871013296       -1.2369250313       -1.0899829201
 H          1.8375422779       -3.7224935221        1.5294726591
 H         -0.2884360727       -4.7128789810        2.3384098387
 H         -2.4441198322       -3.8706479193        1.4972617689
 H         -3.6565443510       -2.2262269082        0.3536216794
 C         -3.2440741910       -2.2597464378       -1.7372523506
 C         -2.3190986014       -2.9699985381       -2.6755286508
 C         -3.4719233419       -3.7057014675       -2.0663691610
 H         -4.3115811621       -3.9690070868       -2.6913082012
 H         -3.2498020024       -4.4281071279       -1.2951605913
 H         -2.3652650612       -2.7004966177       -3.7195580807
 H         -1.3250369516       -3.2098374388       -2.3320221508
 H         -3.9261969505       -1.5457614272       -2.1862242303
