  62
        -98.94443953
 C         -1.9297058673       -0.8383933630        0.0315044529
 C         -2.4129451510        0.4811035347        0.2030678718
 C         -3.8276348267        0.5936756263        0.5823901758
 C         -4.5629785643       -0.5176004153        0.7682166412
 C         -6.0093741413       -0.5647055813        1.1804874935
 C         -6.9959096733       -0.4046829791        0.0157351541
 C         -7.0926360724        1.0065820944       -0.5650071292
 H         -7.9679320772        1.0253642178       -1.2173923923
 H         -7.2723108332        1.7186784527        0.2410336310
 C         -5.8643117913        1.4433165152       -1.3755978756
 H         -6.1901152826        1.9063103341       -2.3098518581
 H         -5.2727821996        0.5648601188       -1.6437648588
 C         -4.9594645496        2.4492985829       -0.6638833429
 H         -4.1050601355        2.6605819370       -1.3121603619
 H         -5.5021611368        3.3844267763       -0.5080709949
 C         -4.4188705965        1.9668881768        0.6886531421
 H         -3.6225803286        2.6466680872        1.0021851448
 H         -5.2100737013        1.9850898261        1.4379706442
 H         -6.7195708825       -1.1058116935       -0.7750863209
 H         -7.9837283786       -0.6913006863        0.3837473569
 H         -6.2020350168        0.2031217872        1.9302492920
 H         -6.1706815694       -1.5442200943        1.6357240000
 O         -4.0516030419       -1.7684980880        0.6174990705
 C         -2.7352063920       -1.9595893719        0.2305163545
 O         -2.4026713269       -3.1562747849        0.1102492473
 O         -1.7053446216        1.5108697024        0.0527705373
 C         -0.4888984076       -1.0712138958       -0.3885441348
 C          0.4456259981       -0.4260738809        0.6052738473
 C          0.2968608041       -0.7363872775        1.9554647775
 C          1.1108879025       -0.1570801924        2.9081156651
 C          2.1012960231        0.7350737519        2.5344683676
 C          2.2642017575        1.0460184592        1.1907008712
 C          1.4434988178        0.4604649354        0.2344085106
 H          1.5831581808        0.7359832079       -0.7968340976
 N          3.2507751403        1.9603585009        0.7880863249
 S          4.2228608899        1.6388582034       -0.5320766068
 O          5.3276724892        2.5626823510       -0.4000588297
 O          3.4633399481        1.7242503675       -1.7524034308
 C          4.7907405446       -0.0301228834       -0.2642506504
 C          5.8224721434       -0.2321339223        0.6320618327
 C          6.2321762877       -1.5272672703        0.9026386812
 C          5.6002930674       -2.5942940146        0.2816980088
 C          4.5672708352       -2.3745102367       -0.6160278086
 C          4.1552506117       -1.0805083278       -0.8939656206
 H          3.3594181675       -0.8704655681       -1.5890704277
 H          4.0785029068       -3.2052051661       -1.0998920557
 H          5.9160112184       -3.6032626002        0.4956310088
 H          7.0388726938       -1.7015643067        1.5962895194
 H          6.2943341432        0.6248784549        1.0847490278
 H          3.7927332257        2.3480891435        1.5463275400
 H          2.7331364831        1.1966137285        3.2780488924
 H          0.9762134548       -0.4015924306        3.9509934080
 H         -0.4793741990       -1.4314288567        2.2464341379
 H         -0.3348749398       -2.1594611415       -0.3479291894
 C         -0.2825308411       -0.6041106228       -1.8139289056
 C          0.7274097104       -1.2794521097       -2.6902743114
 C         -0.7365279376       -1.4828264840       -2.9390760849
 H         -1.1846440027       -1.0206284004       -3.8059159391
 H         -1.1721251626       -2.4365499025       -2.6777453327
 H          1.2915422273       -0.6763746099       -3.3867351672
 H          1.2788412182       -2.1059241617       -2.2674667558
 H         -0.4276578061        0.4640485398       -1.9313096107
