  62
        -98.94259767
 C         -1.5804225704       -1.0581700091        0.2044321803
 C         -2.8329104405       -1.1065954589        0.8710136802
 C         -3.6184242306        0.1320205910        0.8681504794
 C         -3.1027561208        1.2452086007        0.3171583387
 C         -3.7672659710        2.5937941206        0.2593291278
 C         -4.7417798709        2.7569354797       -0.9153225423
 C         -6.0570800308        1.9881962696       -0.7822539820
 H         -6.5158820409        2.2181312401        0.1799345279
 H         -6.7267779408        2.3621079990       -1.5593823623
 C         -5.9214783805        0.4670725895       -0.9393613810
 H         -4.9653467905        0.2336559094       -1.4138249808
 H         -6.7056702804        0.0979707590       -1.6043385808
 C         -6.0304275005       -0.3175171697        0.3683705295
 H         -7.0329080006       -0.1973674896        0.7850870493
 H         -5.8850735904       -1.3779422298        0.1454909001
 C         -5.0050361907        0.0884354611        1.4352680193
 H         -5.2722975309        1.0533879114        1.8654493487
 H         -5.0177185306       -0.6641318284        2.2275315898
 H         -4.9757866810        3.8206952096       -0.9997189030
 H         -4.2353773908        2.4543837892       -1.8348708921
 H         -2.9689360311        3.3302397106        0.1481614674
 H         -4.2902233511        2.7860764911        1.1964971677
 O         -1.8712611907        1.2713101305       -0.2526722412
 C         -1.0898424305        0.1239166106       -0.3559477404
 O         -0.0170360905        0.3110036704       -0.9559841804
 O         -3.2739391504       -2.1387220786        1.4430673508
 C         -0.7598998402       -2.3370873690        0.1813487411
 C          0.6419198797       -2.0416532185        0.6446877311
 C          0.9008407296       -1.9063124577        2.0048663510
 C          2.1637781995       -1.5658597072        2.4528010309
 C          3.1875385195       -1.3315730576        1.5518800608
 C          2.9323222596       -1.4454884985        0.1918282109
 C          1.6732343897       -1.8216161789       -0.2544006190
 H          1.4847253598       -1.9002438296       -1.3135023789
 N          3.9557789797       -1.1661585989       -0.7341292092
 S          4.7945831695        0.2710561013       -0.5362040200
 O          5.3537620695        0.5624330706       -1.8378133802
 O          5.7494039694        0.1149094821        0.5342528102
 C          3.5779248792        1.4956154614       -0.0905965709
 C          2.7253041792        1.9547563407       -1.0733472212
 C          1.7472586091        2.8747905608       -0.7363036719
 C          1.6345688789        3.3106071316        0.5741323878
 C          2.5009622889        2.8425934923        1.5497968082
 C          3.4845249491        1.9259239522        1.2173034388
 H          4.1817634091        1.5438214128        1.9447185691
 H          2.4098345588        3.1856466629        2.5681533980
 H          0.8643955188        4.0192288616        0.8365835673
 H          1.0673581691        3.2333038902       -1.4918952222
 H          2.8368481894        1.5930696901       -2.0825746610
 H          3.6505173898       -1.2528302795       -1.6931344692
 H          4.1764088695       -1.0550721872        1.8795763808
 H          2.3526746994       -1.4737129165        3.5115579609
 H          0.0952120995       -2.0633530973        2.7087462510
 H         -1.2424131802       -2.9832416286        0.9321572615
 C         -0.8041830800       -3.0972345099       -1.1360798984
 C         -2.0864191199       -3.2026404105       -1.9050387084
 C         -0.9363226000       -2.4263702407       -2.4691737188
 H         -0.3977034399       -2.8477054411       -3.3059821985
 H         -1.0015394401       -1.3500134407       -2.4921072695
 H         -2.3439500497       -4.1487860008       -2.3566041179
 H         -2.9362224900       -2.6527314004       -1.5272996788
 H         -0.1856345399       -3.9894320397       -1.1036918478
