  62
        -98.93990830
 C          1.1590531073        1.4639983797        0.2878919664
 C          1.3833212345        0.3791836014       -0.5919723931
 C          2.3942223335       -0.6083320178       -0.1686397598
 C          2.9802130479       -0.4878544254        1.0339663378
 C          4.0011522094       -1.3878089927        1.6849354012
 C          5.1321656806       -1.9313972742        0.8024758179
 C          5.6139472784       -0.9700837580       -0.2938897107
 H          5.1944668822        0.0241914521       -0.1308006562
 H          6.7000273398       -0.8781361551       -0.2335872028
 C          5.2608617597       -1.4466884997       -1.7048070388
 H          5.9198599538       -0.9469100565       -2.4189387902
 H          5.4597489672       -2.5184494659       -1.7729922172
 C          3.8235262227       -1.1746978749       -2.1472152790
 H          3.6745783037       -1.6547384577       -3.1174192608
 H          3.6798394668       -0.1010686262       -2.2963530272
 C          2.7319745581       -1.6647303786       -1.1811615530
 H          1.8185554872       -1.8296882549       -1.7582710167
 H          3.0196682802       -2.6008548008       -0.7106286616
 H          4.8215064888       -2.8682993103        0.3426040404
 H          5.9633526290       -2.1699949583        1.4683449802
 H          3.4764234740       -2.2274899190        2.1502632915
 H          4.4270662241       -0.7917513812        2.4957938187
 O          2.6697473916        0.5272279248        1.8891207380
 C          1.7908877075        1.5307415576        1.5333364665
 O          1.6523809454        2.4182608869        2.3985868479
 O          0.7871348202        0.2170555306       -1.6897721702
 C          0.2286738428        2.6255516674       -0.0318230945
 C         -1.2089248859        2.2362447500        0.2093758742
 C         -1.9237108237        2.7750952685        1.2727195221
 C         -3.2312003284        2.3888202309        1.5142910047
 C         -3.8499021937        1.4526579084        0.7044946965
 C         -3.1378912498        0.9017462137       -0.3526050335
 C         -1.8334810253        1.2996533817       -0.6024076115
 H         -1.2798584891        0.8504047545       -1.4134620202
 N         -3.7445831473       -0.0980973855       -1.1503930648
 S         -3.9340768601       -1.5740719870       -0.3820012194
 O         -4.3942271891       -2.4947020164       -1.3959053985
 O         -4.7998364089       -1.3905671392        0.7547632328
 C         -2.3018475542       -2.0425792798        0.1677673221
 C         -1.7733180291       -1.4380580572        1.2912791757
 C         -0.4900852121       -1.7749474068        1.6898887981
 C          0.2333619360       -2.7119536831        0.9696115530
 C         -0.3097059157       -3.3071090929       -0.1578525858
 C         -1.5861678931       -2.9631606552       -0.5703499611
 H         -2.0466492459       -3.3997431277       -1.4421682766
 H          0.2594075130       -4.0323327066       -0.7167952769
 H          1.2277320614       -2.9775504338        1.2904240154
 H         -0.0571830865       -1.2990312083        2.5565087090
 H         -2.3667394027       -0.7243265013        1.8396985143
 H         -3.2482424341       -0.2514102438       -2.0183999922
 H         -4.8575085085        1.1194420449        0.8921386897
 H         -3.7728269111        2.8177750203        2.3437517529
 H         -1.4399911224        3.4893388012        1.9234111417
 H          0.4856178965        3.4139696807        0.6879953018
 C          0.4317752732        3.1718702617       -1.4317232943
 C         -0.0348960865        4.5607648248       -1.7426901458
 C          1.4316709272        4.2646511756       -1.6533397764
 H          2.0138502729        4.2539622028       -2.5626483960
 H          1.9743671116        4.6293235291       -0.7930564846
 H         -0.4623640635        4.7556254336       -2.7142449280
 H         -0.4865054155        5.1275299646       -0.9424750092
 H          0.3382817115        2.4237484640       -2.2074248589
