  62
        -98.94388845
 C          1.8347830619        1.1083354194        0.1690648006
 C          2.2208309340        0.0742810763       -0.7171850100
 C          3.6625242376       -0.0264663908       -0.9900191702
 C          4.5052088740        0.8580631190       -0.4259099786
 C          5.9983986410        0.8369084864       -0.5757134824
 C          6.6558355314        0.0112718208        0.5390864418
 C          6.0230896403       -1.3653836537        0.7427124941
 H          6.5862139993       -1.8688943403        1.5314714917
 H          5.0013026778       -1.2387354953        1.1078954443
 C          6.0035981926       -2.2471645124       -0.5136406069
 H          6.7205165275       -1.8689054018       -1.2432593133
 H          6.3216436027       -3.2551717207       -0.2391415334
 C          4.6303298313       -2.3788648431       -1.1752801911
 H          4.6832141812       -3.1858824384       -1.9110872062
 H          3.8873289749       -2.6679683535       -0.4273095172
 C          4.1172603056       -1.1298259574       -1.9032574581
 H          3.2352712300       -1.4216813266       -2.4813408003
 H          4.8790053890       -0.7689842390       -2.5975297443
 H          7.7153583777       -0.1045132625        0.3039786229
 H          6.5740764027        0.5673896275        1.4757951706
 H          6.3641131078        1.8635026037       -0.5192025842
 H          6.2549972730        0.4230432475       -1.5488413870
 O          4.0916904797        1.8557477656        0.3965845962
 C          2.7535682647        1.9978130651        0.7256738537
 O          2.5124040081        2.9361600484        1.5116257314
 O          1.4078000208       -0.7258568763       -1.2503567024
 C          0.3715363239        1.2886838891        0.5296336165
 C         -0.2038282066       -0.0002190716        1.0631074501
 C          0.5186807897       -0.7248313752        2.0076611300
 C          0.0286067045       -1.9132936892        2.5118419903
 C         -1.1963538165       -2.4011060713        2.0923025902
 C         -1.9370382583       -1.6751522778        1.1672169622
 C         -1.4439472328       -0.4770977075        0.6670045514
 H         -2.0260125006        0.0620992090       -0.0610010933
 N         -3.2046322059       -2.1203415093        0.7783343495
 S         -3.9479248709       -1.6656302630       -0.6416393177
 O         -5.0636129495       -2.5816932539       -0.7590563961
 O         -3.0414131079       -1.6349555867       -1.7647518089
 C         -4.5795282655       -0.0326161003       -0.3127026311
 C         -4.6702538118        0.8639438432       -1.3589381037
 C         -5.2054157922        2.1209093961       -1.1236813736
 C         -5.6374001450        2.4590158227        0.1492839563
 C         -5.5407703926        1.5470538374        1.1890475277
 C         -5.0119048482        0.2869532513        0.9590951675
 H         -4.9226218025       -0.4430599072        1.7459421060
 H         -5.8762487144        1.8137755012        2.1783460937
 H         -6.0499633315        3.4388285315        0.3307486842
 H         -5.2816808785        2.8306326110       -1.9322102761
 H         -4.3102549570        0.5637335188       -2.3305898042
 H         -3.4601073861       -3.0484736458        1.0785100737
 H         -1.5757851548       -3.3354117411        2.4767498413
 H          0.6069981953       -2.4700692643        3.2339567983
 H          1.4798818645       -0.3479387998        2.3309172855
 H          0.3481367637        2.0353085323        1.3374586049
 C         -0.3898051751        1.8391690830       -0.6590248055
 C         -1.5665763384        2.7429242256       -0.4494624290
 C         -0.2776495202        3.2998403228       -0.9727829774
 H         -0.2258563108        3.6021777897       -2.0079523728
 H          0.3300638329        3.9001382369       -0.3112669374
 H         -2.4040042295        2.6626967055       -1.1258830191
 H         -1.8434477709        2.9754150945        0.5675949549
 H         -0.4164589828        1.1464933742       -1.4936393116
