  62
        -98.93776846
 C         -2.4705987496       -0.9280338157        0.7038446016
 C         -3.5318798169       -0.9487009738       -0.2339759601
 C         -4.6888363857       -0.0976724052        0.0878120067
 C         -4.6780247363        0.6481134186        1.2066038911
 C         -5.7620778019        1.6014580003        1.6163864128
 C         -5.4983198914        3.0124774317        1.0722157312
 C         -5.1617444844        3.0479446914       -0.4186177608
 H         -5.0270495433        4.0955711477       -0.6966111990
 H         -4.2037518141        2.5480454034       -0.5806454716
 C         -6.2245230911        2.4113943371       -1.3250901350
 H         -6.3932287463        3.0681080476       -2.1811639193
 H         -7.1700858271        2.3307217055       -0.7876016512
 C         -5.8413805790        1.0401366872       -1.8844672690
 H         -6.5527445504        0.7842169612       -2.6742997547
 H         -4.8504197144        1.0949802954       -2.3424019716
 C         -5.8426819697       -0.1149327717       -0.8753690454
 H         -6.7927272946       -0.1329786837       -0.3376514737
 H         -5.7487023894       -1.0474495133       -1.4393723854
 H         -4.6590327763        3.4445705162        1.6220741927
 H         -6.3809496990        3.6259292880        1.2622187380
 H         -6.7189932979        1.2333191316        1.2515906868
 H         -5.7901006685        1.6417418565        2.7065865935
 O         -3.6383297945        0.6508439739        2.0790778494
 C         -2.5185005542       -0.1271979184        1.8495221460
 O         -1.6412119544       -0.0299682879        2.7318886635
 H          1.1764073981       -0.6566983839        1.1726513115
 C          0.9633283242       -0.5583408825        0.1164010178
 C         -0.2304185858       -1.0581491586       -0.3835999537
 C         -0.5002720324       -0.9102336141       -1.7398928629
 C          0.4062131197       -0.2724387174       -2.5672123779
 C          1.5939455706        0.2293015388       -2.0648289857
 C          1.8726458876        0.0879476704       -0.7121650310
 N          3.0669393782        0.6140410786       -0.1888128462
 S          4.4756413775        0.3836060457       -1.0938311125
 O          4.5515278631        1.4233403424       -2.0895283088
 O          4.5266804220       -0.9723204581       -1.5919379103
 C          5.7300248894        0.6393554333        0.1452630230
 C          6.1114020973        1.9315896232        0.4527885949
 C          7.0709989949        2.1305778658        1.4325810021
 C          7.6291856941        1.0411347753        2.0849135181
 C          7.2368667993       -0.2498491968        1.7644659138
 C          6.2767792769       -0.4561137711        0.7864047751
 H          5.9488265064       -1.4420823650        0.4981633960
 H          7.6748198401       -1.0947574739        2.2711581169
 H          8.3771420609        1.1986875293        2.8458858873
 H          7.3809002093        3.1322932732        1.6830384988
 H          5.6576111217        2.7464693000       -0.0866969818
 H          3.2040812038        0.3637193030        0.7807389227
 H          2.3098885135        0.7234226515       -2.7021828528
 H          0.1860440391       -0.1632369313       -3.6188295347
 H         -1.4314343195       -1.2859094393       -2.1350959877
 C         -1.2002406621       -1.7497910187        0.5455941479
 H         -0.7426595544       -1.7745385263        1.5438309818
 C         -1.4569798394       -3.1780624149        0.1067011134
 C         -0.4071604043       -4.2135890552        0.3698352112
 C         -1.6898366344       -4.2318791274        1.1449975634
 H         -2.4095981356       -5.0090662373        0.9367284118
 H         -1.6642200744       -3.9274540437        2.1814673409
 H         -0.2422342458       -4.9792795978       -0.3724936312
 H          0.4901650348       -3.8979270270        0.8807312786
 H         -2.0211492587       -3.2543275519       -0.8126150559
 O         -3.5411631552       -1.6341124187       -1.2902954807
