  62
        -98.94763667
 C         -1.8580862841       -1.3084694022       -0.1057742124
 C         -2.9415074550       -0.5554051639        0.4107496531
 C         -3.2184663572        0.7213795513       -0.2539804665
 C         -2.4546768538        1.1127456091       -1.2896537326
 C         -2.5921775745        2.3989775810       -2.0568171941
 C         -1.8723312630        3.5778128163       -1.3871249629
 C         -2.5692190044        4.1391009673       -0.1469921586
 H         -2.0986279722        5.0983765922        0.0779398868
 H         -3.6186139849        4.3337451629       -0.3734783657
 C         -2.4632832052        3.2406246269        1.0933806219
 H         -1.6461124229        2.5273324457        0.9554949799
 H         -2.2002982366        3.8505814397        1.9616142699
 C         -3.7463666462        2.4859298869        1.4447670058
 H         -4.5229907123        3.1999707940        1.7297303194
 H         -3.5402973541        1.8496251336        2.3095333790
 C         -4.2920853516        1.5950928132        0.3210727338
 H         -4.7426279947        2.2081186621       -0.4592973850
 H         -5.0610965062        0.9440494672        0.7449589331
 H         -1.7883510751        4.3772661005       -2.1273482040
 H         -0.8616854675        3.2602816795       -1.1161297438
 H         -2.1405281322        2.2294606228       -3.0366147571
 H         -3.6465223108        2.6407728536       -2.1943881250
 O         -1.4421749727        0.3523939265       -1.7751996593
 C         -1.0783757492       -0.8362072127       -1.1623551367
 O         -0.0700212722       -1.3697487400       -1.6645923329
 O         -3.6355649872       -0.9288608013        1.3955815676
 C         -1.4434169026       -2.5629016133        0.6452679971
 C          0.0357180827       -2.4821191951        0.9322316548
 C          0.9484990731       -3.4896932178        0.6517763494
 C          2.2983865574       -3.3020159979        0.8997269626
 C          2.7689373806       -2.1010600629        1.3976401423
 C          1.8609785292       -1.0880497635        1.6841895534
 C          0.5081858743       -1.2992091546        1.4891044138
 H         -0.1831442999       -0.5015051046        1.7215238029
 N          2.2749224592        0.1821614906        2.1432908625
 S          2.0568204838        1.4476869522        1.0599390234
 O          2.5283805505        2.6274181908        1.7542741664
 O          0.6918449358        1.4787493976        0.6057921767
 C          3.1803000590        1.0660108426       -0.2723460969
 C          2.8205532919        0.1277046768       -1.2187834750
 C          3.7445718932       -0.2174471023       -2.1944881815
 C          4.9988479544        0.3722811751       -2.2063163331
 C          5.3426679205        1.3138066258       -1.2474449700
 C          4.4281766667        1.6607182292       -0.2669314129
 H          4.6474575565        2.3881250368        0.4981253276
 H          6.3175459701        1.7740499694       -1.2591506330
 H          5.7110838659        0.0968347005       -2.9680997483
 H          3.4698886735       -0.9498769828       -2.9365810798
 H          1.8367598567       -0.3165341760       -1.1979270536
 H          3.2300508591        0.2025310426        2.4754980701
 H          3.8253555005       -1.9417751174        1.5544374195
 H          2.9964049425       -4.0937829313        0.6744358178
 H          0.6088267047       -4.4147617846        0.2157036547
 H         -1.9805285580       -2.4912965186        1.6068209368
 C         -1.8766437008       -3.8725689506        0.0056529217
 C         -3.0355582474       -3.9205909086       -0.9435952403
 C         -1.6463319024       -4.1699564511       -1.4447126292
 H         -1.3783115914       -5.1785034744       -1.7238022318
 H         -1.1681878819       -3.4073638865       -2.0382959955
 H         -3.7194211007       -4.7534854769       -0.8764254602
 H         -3.5105712438       -2.9842282943       -1.1991305916
 H         -1.7898051335       -4.7082287205        0.6934542637
