  62
        -98.94309996
 C         -2.5620168017       -0.1737729801        0.5380007650
 C         -2.2071691305        0.3656853909       -0.7239897835
 C         -1.9866764821        1.8199713936       -0.7623643277
 C         -2.0823450920        2.5352760576        0.3717015428
 C         -1.8510874131        4.0143433842        0.4826401672
 C         -0.3913841019        4.3338844524        0.8301872552
 C          0.6302155428        3.6315395595       -0.0647048074
 H          1.6200042833        3.9841606295        0.2358533720
 H          0.6082819774        2.5557973290        0.1289696252
 C          0.4347098872        3.8740658131       -1.5678415532
 H          1.4095384318        4.0765779610       -2.0160823119
 H         -0.1865241583        4.7572112571       -1.7256345303
 C         -0.1626643194        2.6838721478       -2.3213463702
 H          0.3802040225        1.7758747487       -2.0479018631
 H         -0.0190071173        2.8495257085       -3.3927969088
 C         -1.6590671962        2.4339058478       -2.0941943495
 H         -2.2162910099        3.3630085202       -2.2371842517
 H         -1.9922834271        1.7122328131       -2.8459197396
 H         -0.2522688861        5.4149870579        0.7635411502
 H         -0.2054936005        4.0287074064        1.8628781955
 H         -2.1231592760        4.4885353365       -0.4585093112
 H         -2.4952942390        4.4013924446        1.2744962410
 O         -2.3805750788        1.9771984999        1.5743524217
 C         -2.6050498316        0.6157055246        1.6884755833
 O         -2.8376884294        0.2334786402        2.8547261448
 H         -0.2064042465       -1.2280116507        1.1376833849
 C         -0.3487924721       -2.0260565623        0.4216179027
 C         -1.6386894336       -2.4138181479        0.0803398164
 C         -1.8017071893       -3.4442077935       -0.8351559293
 C         -0.6953101356       -4.0473956834       -1.4090225731
 C          0.5850339180       -3.6286102326       -1.0988124257
 C          0.7578213208       -2.6037041668       -0.1748273803
 N          2.0423920585       -2.1476393644        0.1791611584
 S          2.2087357703       -0.4823248586        0.4272938442
 O          1.8228443973       -0.1732176667        1.7831867494
 O          1.5336781841        0.2488006705       -0.6181303931
 C          3.9757805025       -0.3053266318        0.2646752586
 C          4.5052836426        0.2775912294       -0.8704464380
 C          5.8826023434        0.3844063450       -0.9884770611
 C          6.7013760299       -0.0939059124        0.0231294683
 C          6.1546884137       -0.6761299000        1.1575311238
 C          4.7789757156       -0.7838512338        1.2829558627
 H          4.3077281478       -1.2183127018        2.1491630396
 H          6.7941496684       -1.0444683758        1.9433557400
 H          7.7724551681       -0.0100694019       -0.0713891990
 H          6.3097366665        0.8395143527       -1.8674535123
 H          3.8280450227        0.6387222277       -1.6278255314
 H          2.7584453945       -2.4926889774       -0.4466085817
 H          1.4438319967       -4.0831870041       -1.5692406350
 H         -0.8343030128       -4.8425474467       -2.1259233387
 H         -2.7924475541       -3.7562331374       -1.1220857659
 C         -2.7737114971       -1.6664691050        0.7370716363
 H         -2.6821526973       -1.8174629073        1.8264915990
 C         -4.1529699398       -2.1749429759        0.3461200604
 C         -5.3373866962       -1.2562955228        0.3255456826
 C         -4.8030353864       -1.8185001915       -0.9556370872
 H         -5.3836775215       -2.5766442383       -1.4607902346
 H         -4.2595215337       -1.1659951104       -1.6196821801
 H         -5.1617225006       -0.2116363586        0.5394161692
 H         -6.2795907013       -1.6268924708        0.7006881405
 H         -4.3338837478       -3.1773721322        0.7222959320
 O         -2.0968097412       -0.3173810670       -1.7747676188
