  62
        -98.94111831
 C         -2.0900717924       -0.7688383398       -0.4312588266
 C         -3.2326347839       -1.2900112893        0.2311361098
 C         -4.4903429218       -0.5637485724        0.0279341961
 C         -4.5049284476        0.5395520925       -0.7410739186
 C         -5.7111187714        1.3788552547       -1.0644796099
 C         -6.0522482061        2.4214443566        0.0089103620
 C         -6.6512885859        1.8564994503        1.2975617966
 H         -7.0422774906        2.7025673453        1.8662634322
 H         -7.4957829922        1.2117040220        1.0520503312
 C         -5.6535440423        1.0899254264        2.1770466298
 H         -4.6340859814        1.3408773738        1.8745493313
 H         -5.7654393040        1.4077741053        3.2161463270
 C         -5.8194550163       -0.4295109030        2.1479962028
 H         -6.7879557753       -0.7005397204        2.5741219357
 H         -5.0404083339       -0.8711827640        2.7744312016
 C         -5.7106895835       -1.0507142541        0.7493784914
 H         -6.6073268942       -0.8318569248        0.1697304784
 H         -5.6215087577       -2.1340445834        0.8618815175
 H         -6.7743153493        3.1147899342       -0.4286655182
 H         -5.1485582038        2.9885440938        0.2444881593
 H         -5.4836021043        1.9045853615       -1.9944285969
 H         -6.5731346725        0.7324902034       -1.2327162361
 O         -3.3877291466        1.0198154379       -1.3450363461
 C         -2.1515463109        0.3978887604       -1.1956858102
 O         -1.2290324165        0.9814512309       -1.7934823703
 O         -3.2019513655       -2.3184118468        0.9574670689
 C         -0.7752055811       -1.5001456550       -0.2198958101
 C          0.2980305993       -0.5278909601        0.1958510961
 C          0.2986807718       -0.0342120495        1.4971246755
 C          1.2483276570        0.8834883599        1.9053466841
 C          2.2161250824        1.3305234638        1.0233414629
 C          2.2229894866        0.8444639965       -0.2774146475
 C          1.2785061485       -0.0906584725       -0.6805236847
 H          1.2815904584       -0.4446692014       -1.6994348003
 N          3.1971954331        1.2988435863       -1.1791314690
 S          4.7769649171        1.4349469334       -0.6592033687
 O          4.9460103919        2.6540472413        0.0923113786
 O          5.5820326045        1.3144692088       -1.8545605418
 C          5.0335823026        0.0285633819        0.4091337573
 C          5.3485648400        0.2183721450        1.7388955520
 C          5.5123014784       -0.8903551120        2.5541945378
 C          5.3547010345       -2.1630071837        2.0285966362
 C          5.0408658360       -2.3376825878        0.6891789503
 C          4.8778414278       -1.2331272808       -0.1304640682
 H          4.6409504566       -1.3341244343       -1.1774114374
 H          4.9202840972       -3.3290056395        0.2826648388
 H          5.4779563594       -3.0250184777        2.6650692936
 H          5.7587721218       -0.7575917015        3.5953039419
 H          5.4599904988        1.2253128843        2.1068432964
 H          3.1281212457        0.9012513219       -2.1032847954
 H          2.9510080150        2.0627268236        1.3162922166
 H          1.2333854987        1.2598946043        2.9169293367
 H         -0.4647839454       -0.3725729221        2.1841691784
 H         -0.9759292422       -2.1693567902        0.6325080282
 C         -0.3535387844       -2.3948518719       -1.3760520751
 C         -1.3773100189       -3.1507624356       -2.1676699267
 C         -0.5940360841       -2.0495304581       -2.8140285765
 H          0.1634109322       -2.3184311966       -3.5364924590
 H         -1.0945136980       -1.1201789187       -3.0359683030
 H         -1.1635626563       -4.1708522207       -2.4489674105
 H         -2.4170616946       -2.9689179948       -1.9375709219
 H          0.5692818816       -2.9227594112       -1.1543455863
