  62
        -98.94064087
 C         -1.5950821698       -0.5717418619        0.7818670549
 C         -2.9549473949       -0.6881209391        1.1723036497
 C         -3.9411221032       -0.7411258842        0.0881039927
 C         -3.5298196883       -0.6683710531       -1.1902692453
 C         -4.4097773709       -0.7271369513       -2.4092703459
 C         -5.0312805944        0.6223898018       -2.7939434502
 C         -6.1483170294        1.1107405835       -1.8707060256
 H         -6.6362572361        1.9477894374       -2.3740810995
 H         -6.8926035875        0.3222767713       -1.7544770854
 C         -5.6695775809        1.5776786044       -0.4888531653
 H         -4.5925905485        1.7602434127       -0.5191471506
 H         -6.1468141054        2.5284402257       -0.2405379409
 C         -5.9765995521        0.6058068499        0.6506983881
 H         -7.0581109114        0.5189480802        0.7762485846
 H         -5.5626223337        1.0191333353        1.5739404791
 C         -5.3925488109       -0.7998505088        0.4578282807
 H         -5.4739767649       -1.3373730563        1.4057335197
 H         -5.9569430913       -1.3408030909       -0.3014149052
 H         -4.2379053435        1.3726671155       -2.8358450065
 H         -5.4414173804        0.5171197458       -3.8010746498
 H         -3.7767274395       -1.0613424485       -3.2341610218
 H         -5.1999154029       -1.4628692437       -2.2564824581
 O         -2.2200028110       -0.5460222275       -1.5271081152
 C         -1.2220915474       -0.4675274919       -0.5596189703
 O         -0.0816180277       -0.3239164746       -1.0343827508
 O         -3.3278808741       -0.7453252636        2.3741231929
 C         -0.5618826009       -0.4723554265        1.8908410491
 C          0.2685186507        0.7729397849        1.7133599401
 C         -0.3030206477        2.0007551190        2.0374994984
 C          0.4149674164        3.1732403001        1.9077139414
 C          1.7173883158        3.1417139917        1.4420067730
 C          2.2931280650        1.9252132879        1.0988320289
 C          1.5723628922        0.7465037918        1.2410184721
 H          2.0273065475       -0.1904726715        0.9648931591
 N          3.6230401110        1.8683454473        0.6325530493
 S          3.8765569306        1.3273878338       -0.9436440887
 O          5.1657439175        1.8876913146       -1.3012605576
 O          2.7774784935        1.6882225765       -1.8074688036
 C          4.0549271761       -0.4362434078       -0.8074073501
 C          5.2142839832       -0.9185504053       -0.2306362741
 C          5.4007057682       -2.2883370410       -0.1471762014
 C          4.4335129053       -3.1466091304       -0.6493152728
 C          3.2763677549       -2.6443668073       -1.2242229676
 C          3.0767634107       -1.2738546258       -1.3029429498
 H          2.1753944128       -0.8466129913       -1.7138776597
 H          2.5217036824       -3.3115328082       -1.6100186085
 H          4.5802989761       -4.2139299508       -0.5922085559
 H          6.2975621935       -2.6829032815        0.3025342009
 H          5.9467816351       -0.2143355844        0.1272095721
 H          4.1200696626        2.7413798653        0.7511142327
 H          2.2852923292        4.0545422131        1.3365768951
 H         -0.0399315982        4.1172196062        2.1680613193
 H         -1.3232809803        2.0222292329        2.3962192092
 H         -1.1674468849       -0.3370579736        2.8026116787
 C          0.2714906917       -1.7233463512        2.1189116273
 C         -0.3693581028       -3.0772257034        2.0511378853
 C          0.6536998264       -2.6792596384        1.0320630100
 H          1.6318088164       -3.1347757149        1.0820002890
 H          0.3260232450       -2.4615291537        0.0286707056
 H         -0.1018941917       -3.8142284271        2.7930403771
 H         -1.4047418186       -3.1188796399        1.7448894701
 H          1.0012619372       -1.5747297951        2.9091737190
