  62
        -98.93426586
 C         -2.4021456851        0.9022623930       -0.1499843131
 C         -2.7425670711       -0.4587357623        0.0232420367
 C         -4.1502535402       -0.8200203190       -0.2298790177
 C         -5.0225426843        0.1352628913       -0.6028988016
 C         -6.4901746383        0.0591019147       -0.9703967635
 C         -7.3129402603       -1.1861960776       -0.6511329532
 C         -7.5425516830       -1.4343934896        0.8392461153
 H         -8.2128618228       -0.6601043274        1.2208364621
 H         -8.0472517140       -2.3963127715        0.9520700265
 C         -6.2882464638       -1.4260002333        1.7094665726
 H         -5.8269495348       -0.4367211843        1.6797125020
 H         -6.5971699911       -1.6052271041        2.7429276461
 C         -5.2364434883       -2.4741589932        1.3514472596
 H         -4.4779391237       -2.4612252010        2.1388707631
 H         -5.6930883780       -3.4657713576        1.3438504647
 C         -4.5132291686       -2.2570815429        0.0109097600
 H         -5.0929433342       -2.6520788767       -0.8198613416
 H         -3.5685443352       -2.8079011722        0.0433149119
 H         -8.2918896839       -1.0389982903       -1.1153830380
 H         -6.8707762603       -2.0602275564       -1.1199134386
 H         -6.5335785339        0.2348335698       -2.0509752643
 H         -6.9595341433        0.9285553505       -0.4992641730
 O         -4.6407205645        1.4374961774       -0.7635916483
 C         -3.3417819885        1.8539050784       -0.5391751068
 O         -3.1520659123        3.0737789371       -0.7228419735
 O         -1.9108871205       -1.3400412850        0.3645220941
 C         -0.9806122890        1.3678706874        0.0967304985
 C         -0.0043446383        0.6263187164       -0.7848061689
 C         -0.3258152715        0.3947565356       -2.1199454489
 C          0.5596535992       -0.2539030553       -2.9583554904
 C          1.7971346364       -0.6627366660       -2.4929509127
 C          2.1316439190       -0.4294703767       -1.1651891681
 C          1.2309886288        0.2043748281       -0.3197585604
 H          1.5200304271        0.3689039302        0.7048418223
 N          3.3748508922       -0.8348743708       -0.6534314526
 S          4.1329562059        0.1768562813        0.4677327205
 O          3.6658353046       -0.1560237406        1.7897930471
 O          3.9857525059        1.5571325605        0.0653380308
 C          5.8300562307       -0.3404476848        0.2801908599
 C          6.2750164383       -1.4466098553        0.9792168601
 C          7.5853587116       -1.8642217442        0.8079980477
 C          8.4238645619       -1.1740924534       -0.0548390639
 C          7.9637197120       -0.0646587095       -0.7482210537
 C          6.6542269976        0.3578904698       -0.5823579476
 H          6.2559693694        1.2202144824       -1.0926231691
 H          8.6188323534        0.4719926442       -1.4154131009
 H          9.4433410416       -1.5010234933       -0.1854727859
 H          7.9477135142       -2.7240922972        1.3479158583
 H          5.5902003199       -1.9455860309        1.6449573548
 H          4.0140853239       -1.1464695180       -1.3717904823
 H          2.4928342236       -1.1620401003       -3.1501353364
 H          0.2893258154       -0.4325940089       -3.9883817215
 H         -1.2856506594        0.7289349621       -2.4909214474
 H         -0.9524060362        2.4294941069       -0.1941336935
 C         -0.6491462647        1.2627102373        1.5714441433
 C          0.3284102296        2.2088553902        2.1989873848
 C         -1.1334203536        2.3286326980        2.5059446025
 H         -1.4810982379        2.0377733134        3.4857987403
 H         -1.6811340940        3.1534985605        2.0732208627
 H          0.9913607804        1.8311392358        2.9636727382
 H          0.7809725803        2.9556508241        1.5632404086
 H         -0.6652710152        0.2383722876        1.9275439622
