  62
        -98.94487622
 C          2.6437234131        0.3130897798        0.0020680656
 C          2.4558783282        1.4300058925       -0.8451602375
 C          1.7756235568        2.5815272503       -0.2451586265
 C          1.3819314588        2.5269571780        1.0405801010
 C          0.6289999323        3.5995734274        1.7790937094
 C         -0.8866825980        3.5420167875        1.5378019430
 C         -1.3450644328        4.0571257523        0.1719376485
 H         -2.4257339545        4.2021378122        0.2313088439
 H         -0.8950204068        5.0320566637       -0.0202167750
 C         -1.0383619478        3.1041198410       -0.9921384401
 H         -1.9166163024        3.0242748645       -1.6384242733
 H         -0.8393239803        2.1063676529       -0.5915627151
 C          0.1293906834        3.5376085894       -1.8792188939
 H         -0.1283414847        4.4663285715       -2.3936743753
 H          0.2894693189        2.7662646320       -2.6373183734
 C          1.4530724991        3.7464876672       -1.1328493870
 H          2.2526368286        3.8300962143       -1.8733984709
 H          1.4166010286        4.6670468583       -0.5512307333
 H         -1.2155163362        2.5067496948        1.6642565792
 H         -1.3656446201        4.1451346984        2.3128817435
 H          0.8162936960        3.4363938902        2.8424721408
 H          1.0113819650        4.5829927636        1.5033769162
 O          1.6359351531        1.4582506109        1.8402533796
 C          2.2160384825        0.3082979274        1.3311157403
 O          2.3176923344       -0.6242651330        2.1522849184
 H          0.6444924510       -0.6122940698       -1.2726943488
 C          0.7909396171       -1.6065678778       -0.8669436957
 C          2.0682791312       -2.0057316458       -0.4921308999
 C          2.2307484658       -3.2869214865        0.0166018115
 C          1.1363316453       -4.1190053624        0.1895556737
 C         -0.1406614430       -3.6904106164       -0.1253365657
 C         -0.3057467357       -2.4238924950       -0.6656287948
 N         -1.6215711174       -1.9334477654       -0.9199570015
 S         -2.1761250945       -1.1470103473        0.4816960133
 O         -1.4239629125        0.0687507163        0.7056358992
 O         -2.1822513581       -2.1119862171        1.5511382634
 C         -3.8512082598       -0.7475150425        0.0181177866
 C         -4.7715586877       -1.7755013236       -0.0542976985
 C         -6.0693351627       -1.4852424180       -0.4429265338
 C         -6.4224690719       -0.1797221588       -0.7518873233
 C         -5.4874542953        0.8409658934       -0.6739116384
 C         -4.1867455387        0.5569466318       -0.2870586532
 H         -3.4273134294        1.3185574258       -0.2074309428
 H         -5.7643572999        1.8552758421       -0.9124229049
 H         -7.4335845489        0.0441815854       -1.0532204293
 H         -6.7998141626       -2.2757062735       -0.5035485708
 H         -4.4516563776       -2.7714253918        0.2026753200
 H         -1.6009888473       -1.2320976241       -1.6519396969
 H         -1.0055528876       -4.3063295888        0.0576231932
 H          1.2792893588       -5.1062169323        0.6021225109
 H          3.2125854314       -3.6261540897        0.3047453249
 C          3.1729778438       -0.9811070499       -0.5941189253
 H          3.3585388447       -0.7635877793       -1.6566099344
 C          4.4696346387       -1.4116339959        0.0537555185
 C          5.4463181341       -2.2565482401       -0.7074129190
 C          5.7558315657       -0.8165807835       -0.4329641055
 H          6.5196596452       -0.5797002507        0.2921675864
 H          5.6979512853       -0.1140163535       -1.2514078852
 H          5.1852411707       -2.5346232634       -1.7172374541
 H          6.0026630906       -3.0101232547       -0.1709734051
 H          4.3650208400       -1.5780134600        1.1199030912
 O          2.8173404815        1.4523788451       -2.0541086043
