  62
        -98.93696227
 C         -1.7640038379       -0.9495373087       -0.2594282682
 C         -3.1284114083       -1.3247932484       -0.2008942604
 C         -4.1240864579       -0.2579434778       -0.4043871226
 C         -3.7045118734        1.0075716248       -0.5885675464
 C         -4.4729595321        2.2847564484       -0.8562746051
 C         -5.9826615157        2.3480796761       -0.6402758331
 C         -6.4256851573        2.2349025535        0.8181431726
 H         -6.1184111346        3.1413642688        1.3457741210
 H         -7.5167167229        2.1907651092        0.8412513152
 C         -5.8641911192        1.0420659663        1.5879729843
 H         -4.7777054486        1.1276140434        1.6561190066
 H         -6.2548019934        1.0890181490        2.6081803556
 C         -6.2193497065       -0.3298867137        1.0182777746
 H         -5.8958803663       -1.0816714738        1.7433901725
 H         -7.3024751876       -0.4147565218        0.9108230106
 C         -5.5640504337       -0.6772541311       -0.3296555911
 H         -6.1279896645       -0.2631124944       -1.1622139775
 H         -5.5727693815       -1.7659329970       -0.4373255273
 H         -6.3084621061        3.3248437753       -1.0082788925
 H         -6.4825183500        1.6008689371       -1.2496783065
 H         -4.2620304272        2.5438163734       -1.8998331641
 H         -3.9916980297        3.0548723407       -0.2450979754
 O         -2.3781706041        1.3276977271       -0.5992821378
 C         -1.3800198340        0.3787280236       -0.4331088129
 O         -0.2298225983        0.8521819448       -0.4554124917
 O         -3.5038980251       -2.5089190535        0.0105376087
 C         -0.7216008305       -2.0346640373       -0.0662071936
 C          0.3385689706       -1.5848881861        0.9081813854
 C         -0.0508781356       -1.2107420008        2.1925567986
 C          0.8822578943       -0.7927653289        3.1200318782
 C          2.2257839824       -0.7442204190        2.7900000675
 C          2.6280365030       -1.1244175976        1.5156584982
 C          1.6853349666       -1.5448991302        0.5850558851
 H          2.0232896371       -1.8163163703       -0.4002723624
 N          3.9916728003       -1.1360562828        1.1811179744
 S          4.6057514862       -0.5683060587       -0.2644854044
 O          3.9700990751       -1.2342361530       -1.3716405699
 O          6.0346052317       -0.7607077744       -0.1415871779
 C          4.2559275932        1.1811855687       -0.2890970932
 C          2.9569339182        1.6155027244       -0.4604932207
 C          2.7046068011        2.9789412904       -0.4425697928
 C          3.7428255623        3.8784551136       -0.2585439957
 C          5.0420871414        3.4242723890       -0.0867093262
 C          5.3020962759        2.0639572782       -0.0975394951
 H          6.2953827897        1.6651125995        0.0309505956
 H          5.8495354993        4.1243169811        0.0565199156
 H          3.5373743189        4.9374629924       -0.2486440399
 H          1.6877609346        3.3150795417       -0.5698899547
 H          2.1506225839        0.9128967268       -0.5976423827
 H          4.6045240849       -0.8686493632        1.9379425660
 H          2.9565662891       -0.4186099503        3.5146292035
 H          0.5636085830       -0.4998190276        4.1091957832
 H         -1.1010938014       -1.2462641910        2.4500415808
 H         -1.2756729753       -2.8667965479        0.4009827843
 C         -0.1442639929       -2.5752019292       -1.3658341524
 C         -0.9243122761       -2.5400298429       -2.6449152541
 C          0.2884847441       -1.6758396597       -2.4832454573
 H          1.1887442902       -1.9285702309       -3.0249153281
 H          0.1487333293       -0.6142426897       -2.3521199526
 H         -0.8670136975       -3.3940369616       -3.3029981792
 H         -1.8944882372       -2.0646046374       -2.6290513303
 H          0.4593009416       -3.4633686009       -1.2019463136
