  62
        -98.93954979
 C         -2.4774564850       -1.0132663931        0.5141683173
 C         -2.3966482038        0.3044498211       -0.0009684324
 C         -3.5640070863        1.1606257401        0.2590518584
 C         -4.5944923580        0.6954839376        0.9863681594
 C         -5.8413877898        1.4555677643        1.3487705362
 C         -6.9213925948        1.4390454790        0.2582920802
 C         -6.6193469612        2.2987397862       -0.9698294073
 H         -7.5436759478        2.3684455014       -1.5467679637
 H         -6.3585841660        3.3080710124       -0.6499782512
 C         -5.5129262530        1.7420297948       -1.8767350459
 H         -5.8358149019        1.7940187180       -2.9189970714
 H         -5.3492555536        0.6867334828       -1.6460022286
 C         -4.1795225795        2.4832881188       -1.7779498718
 H         -3.4613068933        1.9858854534       -2.4349317811
 H         -4.3037668574        3.5089462224       -2.1322788117
 C         -3.5819059566        2.5232992572       -0.3652875378
 H         -2.5472273211        2.8669635673       -0.4392217612
 H         -4.1393538681        3.2209997072        0.2591579406
 H         -7.8466625850        1.8028380902        0.7110093890
 H         -7.0886085172        0.4050972952       -0.0526680442
 H         -6.2474164722        0.9774948981        2.2429004249
 H         -5.5844460566        2.4868008639        1.5925239798
 O         -4.6080692741       -0.5586005577        1.5125236983
 C         -3.5642832429       -1.4395330198        1.2826960012
 O         -3.7132691983       -2.5560984668        1.8188905074
 H          0.7484404174       -1.4865308251       -1.3906626911
 C          0.9444539013       -1.1937455284       -0.3707551803
 C         -0.0251357389       -1.3829707809        0.6002328812
 C          0.2486788287       -0.9713071444        1.9018114876
 C          1.4552945807       -0.3772227769        2.2166965098
 C          2.4171894271       -0.1804341553        1.2411649957
 C          2.1565008982       -0.5902663344       -0.0584621627
 N          3.1199193542       -0.3781240828       -1.0569842983
 S          4.7150694802       -0.7940913727       -0.7626262578
 O          5.2890307206       -1.0376905094       -2.0682973084
 O          4.8127658859       -1.8736684849        0.1924056638
 C          5.4307873096        0.6888398468       -0.0850084051
 C          5.3446470691        1.8503357877       -0.8271842105
 C          5.9035287060        3.0120515299       -0.3193524522
 C          6.5378133504        2.9925436585        0.9139855255
 C          6.6190828362        1.8176118270        1.6454196387
 C          6.0613340211        0.6521360225        1.1430503356
 H          6.0974608073       -0.2833756866        1.6785349000
 H          7.1133125769        1.8045019909        2.6036117101
 H          6.9715388040        3.8984723522        1.3071087237
 H          5.8422601608        3.9276365513       -0.8853831411
 H          4.8465574425        1.8235615355       -1.7820352386
 H          2.8259814966       -0.6578494613       -1.9809434193
 H          3.3592268410        0.2865380862        1.4779727785
 H          1.6494368863       -0.0603288674        3.2303306399
 H         -0.5054785694       -1.1184850826        2.6636144679
 C         -1.3606031257       -2.0234731386        0.3124473278
 H         -1.5328761296       -2.7934797270        1.0825954704
 C         -1.4080089261       -2.7403993096       -1.0290671969
 C         -2.7181638509       -3.0294665197       -1.6973711406
 C         -1.7684170783       -2.0441361175       -2.3057308760
 H         -1.2472783512       -2.3285149513       -3.2087541070
 H         -2.0089923790       -0.9943095894       -2.2535268593
 H         -2.8488748591       -3.9869098778       -2.1788990998
 H         -3.6132730338       -2.6546558960       -1.2224152918
 H         -0.6545216124       -3.5201995714       -1.0949153658
 O         -1.4161518574        0.7572792011       -0.6444455238
