  62
        -98.94029424
 C         -2.5492146365       -1.0740428318       -0.2394850187
 C         -2.4202936775        0.3201761068       -0.0310350258
 C         -3.6043718166        0.9913387295        0.5206617380
 C         -4.7018402380        0.2741620178        0.8233116741
 C         -5.9757743517        0.8105747636        1.4180593796
 C         -6.9474064255        1.3999557965        0.3864475031
 C         -6.5278647737        2.7452352114       -0.2071881251
 H         -7.3926410198        3.1427369293       -0.7421366558
 H         -6.2964901513        3.4408598416        0.6000636419
 C         -5.3410299672        2.6664546249       -1.1774924184
 H         -5.2017529281        1.6318889558       -1.4993667128
 H         -5.5626673122        3.2531546515       -2.0717915798
 C         -4.0212979608        3.1888169780       -0.6093779177
 H         -4.1077024296        4.2581902218       -0.4041644681
 H         -3.2443691261        3.0528969733       -1.3659400363
 C         -3.5611016407        2.4820011122        0.6725129769
 H         -4.1741987720        2.7971910371        1.5167178254
 H         -2.5236769224        2.7647884064        0.8690182623
 H         -7.9105017603        1.5315159737        0.8849035973
 H         -7.0857443804        0.6736272839       -0.4176870649
 H         -6.4662950556       -0.0315474301        1.9110263410
 H         -5.7402791834        1.5639171914        2.1703777861
 O         -4.7730065031       -1.0708387202        0.6359587009
 C         -3.7106357030       -1.7726348962        0.0903898884
 O         -3.9164718678       -2.9962596125       -0.0421061934
 O         -1.3758467391        0.9733086773       -0.2915347352
 C         -1.3890766999       -1.8679748989       -0.8141654061
 C         -0.2002060923       -1.7492275980        0.1089444534
 C         -0.3580267010       -2.1218539931        1.4418036911
 C          0.6901835499       -2.0133410944        2.3340343803
 C          1.9215451878       -1.5354089251        1.9188227838
 C          2.0903576859       -1.1619187173        0.5935244888
 C          1.0330721265       -1.2745815657       -0.3037503009
 H          1.1779258019       -0.9746068326       -1.3297194234
 N          3.3427452278       -0.7039978784        0.1427964245
 S          4.2398807981        0.3286088265        1.1322871078
 O          4.8154512225       -0.4469488538        2.2027780016
 O          3.4445868301        1.4675647029        1.5342747503
 C          5.5198954548        0.8252256535       -0.0036167696
 C          6.6086694048       -0.0075122414       -0.1799023426
 C          7.5925546508        0.3592801468       -1.0840830248
 C          7.4717694925        1.5451472549       -1.7933250180
 C          6.3740823731        2.3713463890       -1.6043568543
 C          5.3855285377        2.0098258743       -0.7023997374
 H          4.5192044287        2.6251652197       -0.5177942629
 H          6.2842632733        3.2940957419       -2.1547639234
 H          8.2390621380        1.8290968729       -2.4961529595
 H          8.4487212879       -0.2787810255       -1.2324187458
 H          6.6634598939       -0.9141302149        0.3995410335
 H          3.2867977888       -0.3265890311       -0.7939038739
 H          2.7436345299       -1.4369489482        2.6087116339
 H          0.5506044018       -2.3009365761        3.3656633546
 H         -1.3213442085       -2.4904619841        1.7690714436
 H         -1.7117488869       -2.9190120215       -0.8154789968
 C         -1.1135058951       -1.4406769723       -2.2401476577
 C         -0.4469694418       -2.3864570281       -3.1923165913
 C         -1.9031239925       -2.0684901826       -3.3476840491
 H         -2.2117317677       -1.4486948972       -4.1761914541
 H         -2.6265913061       -2.8230176033       -3.0746644331
 H          0.2430111729       -1.9870202373       -3.9202209135
 H         -0.1787661907       -3.3630573881       -2.8188527281
 H         -0.8914966713       -0.3830343618       -2.3245040670
