  62
        -98.94369313
 C         -1.7508332039       -0.4346119949       -0.3144476653
 C         -2.9537519406       -0.8707996856       -0.9183220462
 C         -4.1750436157       -0.6854300280       -0.1235808419
 C         -4.0828020494       -0.1496293072        1.1075399746
 C         -5.2506699769        0.1397644259        2.0046785380
 C         -5.7784365969        1.5649554628        1.7882123501
 C         -6.0113970574        1.9208160363        0.3199129513
 H         -5.0505643754        1.9385712384       -0.1994041226
 H         -6.4113291148        2.9366923897        0.2909423270
 C         -6.9678227631        0.9741319972       -0.4186323401
 H         -7.6659441770        1.5716183103       -1.0087828026
 H         -7.5572842938        0.4060086249        0.3019534655
 C         -6.2818062973        0.0074706331       -1.3857749922
 H         -5.6177740090        0.5647418732       -2.0513725789
 H         -7.0527106619       -0.4566433755       -2.0068026891
 C         -5.4746890461       -1.1244523046       -0.7375086352
 H         -5.2084411602       -1.8355796448       -1.5251937802
 H         -6.0934370634       -1.6432718467       -0.0023889750
 H         -5.0519181506        2.2691118664        2.1999608088
 H         -6.7114822944        1.6754104925        2.3437800879
 H         -6.0396272062       -0.5843072110        1.8107260584
 H         -4.9220256018        0.0368339013        3.0401722470
 O         -2.9060685782        0.2360250297        1.6630800908
 C         -1.7113532414        0.1116810117        0.9686047205
 O         -0.7108056662        0.5131738368        1.5906316189
 H          2.1929173882       -0.1395107719       -0.4180431639
 C          1.8181851008       -1.0785172794       -0.0490413347
 C          0.5094406829       -1.4543320460       -0.3034245018
 C          0.0633797259       -2.6841564560        0.1753639256
 C          0.9022525697       -3.5044135496        0.9030506206
 C          2.2068246061       -3.1212299843        1.1623785763
 C          2.6653071473       -1.9009090083        0.6825724028
 N          3.9692584828       -1.4727133600        0.9579945311
 S          4.8214197875       -0.5121369551       -0.1056199376
 O          4.5870216065       -0.8934153545       -1.4790150886
 O          6.1931182378       -0.6060016397        0.3476561712
 C          4.2254918584        1.1402906224        0.1835535616
 C          4.1144325983        2.0042185496       -0.8880018232
 C          3.6743126991        3.2989952903       -0.6638605640
 C          3.3570333539        3.7058254443        0.6227791562
 C          3.4799376307        2.8278966375        1.6887873891
 C          3.9213031872        1.5325828243        1.4715889485
 H          4.0190417085        0.8243588891        2.2772708969
 H          3.2274219701        3.1463596120        2.6873898796
 H          3.0093802765        4.7122505908        0.7953939458
 H          3.5775779889        3.9838334473       -1.4914583612
 H          4.3630652467        1.6412339655       -1.8729205150
 H          4.5555099836       -2.1340871588        1.4442943424
 H          2.8622148803       -3.7590461455        1.7356514479
 H          0.5404299986       -4.4527566362        1.2712938175
 H         -0.9558287535       -2.9845964553       -0.0268859607
 C         -0.4480344724       -0.5841748666       -1.0787650787
 H         -0.7119007047       -1.1117433456       -2.0077858341
 C          0.1134980542        0.7763552667       -1.4341806053
 C          0.9872280990        0.9414193275       -2.6402993623
 C         -0.4104550487        1.4812773361       -2.6480575288
 H         -0.5506860039        2.5507086203       -2.6033366625
 H         -1.1558867270        0.9668883522       -3.2370195034
 H          1.2006347747        0.0613792846       -3.2282411479
 H          1.8068682137        1.6415661849       -2.5877731842
 H          0.3304489551        1.3794192152       -0.5591726227
 O         -3.0024895501       -1.3958798387       -2.0638250291
