  62
        -98.93367959
 C         -2.3344874167       -1.1609530370        0.2681077453
 C         -2.6263295563       -0.0454809140       -0.5503970787
 C         -3.6735696131        0.8819575303       -0.0667032434
 C         -4.2530164843        0.6514815515        1.1251679122
 C         -5.3503849884        1.4317783818        1.7982407553
 C         -6.7332525828        1.1565943127        1.1847821787
 C         -6.7636164258        1.1147444121       -0.3408902248
 H         -6.0638994639        0.3543223078       -0.6927734690
 H         -7.7649866367        0.7984736940       -0.6448216779
 C         -6.4629446499        2.4411766524       -1.0345946436
 H         -6.5949998109        2.2835782620       -2.1081870895
 H         -7.1960849126        3.1857144632       -0.7162738489
 C         -5.0622439829        3.0130308181       -0.8075056932
 H         -4.9802818449        3.4696204115        0.1750820018
 H         -4.9175216601        3.8167035211       -1.5356916852
 C         -3.9236352551        2.0212974699       -1.0261366160
 H         -2.9809531096        2.5805174199       -1.0736599110
 H         -4.0340803161        1.5629922137       -2.0157413603
 H         -7.4282300915        1.9171489573        1.5443289446
 H         -7.0765306261        0.1856514917        1.5499746529
 H         -5.3643494216        1.1135522250        2.8429147057
 H         -5.1204945268        2.4928779254        1.7786953968
 O         -3.9150280197       -0.4195068119        1.8983845548
 C         -2.9752990071       -1.3444990083        1.4969202050
 O         -2.7960446790       -2.2785002733        2.3037407056
 O         -2.0560638710        0.1949987104       -1.6479480269
 C         -1.3269625809       -2.2366786881       -0.1049541754
 C          0.0758028987       -1.8440313522        0.2806690627
 C          0.8841760865       -2.7056118045        1.0122036844
 C          2.1807075973       -2.3473004862        1.3384860230
 C          2.6960199332       -1.1262872853        0.9420998001
 C          1.8961619971       -0.2579414893        0.2106875744
 C          0.5964476913       -0.6186550283       -0.1124685993
 H         -0.0181297864        0.0535066663       -0.6936500582
 N          2.4141603236        0.9868759674       -0.1980305684
 S          3.8081465506        0.9451376071       -1.1398258239
 O          3.7955480437        2.1753745054       -1.9003842103
 O          3.8909958747       -0.2812726356       -1.8993016715
 C          5.1298238720        1.0146004873        0.0513347892
 C          5.1803606688        2.0993773496        0.9048339146
 C          6.2058362716        2.1721912828        1.8339385310
 C          7.1591989934        1.1662909575        1.8917929284
 C          7.0967059586        0.0858162638        1.0251942611
 C          6.0728012460        0.0063828673        0.0939449287
 H          5.9802848000       -0.8166708263       -0.5965402380
 H          7.8390444954       -0.6947193950        1.0714200966
 H          7.9559547358        1.2254416006        2.6163498904
 H          6.2582876579        3.0111903003        2.5089869764
 H          4.4225516369        2.8607249464        0.8234772978
 H          1.7202614559        1.5722238102       -0.6424339774
 H          3.7049300493       -0.8420000348        1.1928277502
 H          2.7969840440       -3.0259179392        1.9080444706
 H          0.4861442708       -3.6576101061        1.3319786366
 H         -1.6051944511       -3.1083336176        0.5080920166
 C         -1.4363800136       -2.6610759508       -1.5650725467
 C         -0.3838003497       -2.3984807445       -2.5962278853
 C         -0.5944907712       -3.7894206328       -2.0830875004
 H         -1.0498127922       -4.5211338080       -2.7330125767
 H          0.1570452495       -4.1915284690       -1.4203801087
 H         -0.7145011844       -2.1544258315       -3.5946098138
 H          0.5140262498       -1.8760672831       -2.3027890138
 H         -2.4628468060       -2.6245251282       -1.9165175557
