  62
        -98.93722645
 C         -1.1788277945       -0.8822070818        0.5545081691
 C         -1.9339075739       -0.5594683699       -0.5966545497
 C         -2.9805080756        0.4731846876       -0.4387624759
 C         -3.1018544745        1.1041594200        0.7430503954
 C         -4.1091714621        2.1483479057        1.1448284706
 C         -5.5007623818        1.5545359682        1.4198428372
 C         -5.9693073404        0.5145573476        0.4052558320
 H         -5.2412993912       -0.2975275795        0.3623508993
 H         -6.9071192338        0.0906806885        0.7737577908
 C         -6.2190133111        1.0463073077       -1.0039030736
 H         -6.6223523293        0.2207202262       -1.5957139386
 H         -6.9807709376        1.8280087257       -0.9618426008
 C         -4.9954001864        1.6012820329       -1.7359885930
 H         -5.2707690176        1.7179473158       -2.7883508106
 H         -4.7378496051        2.5932278402       -1.3741762408
 C         -3.7683470369        0.6951449538       -1.7075767804
 H         -4.0514300271       -0.3011092221       -2.0664781066
 H         -3.0419614818        1.0688735273       -2.4400223238
 H         -6.2213386302        2.3727379824        1.4660923284
 H         -5.4732415720        1.0733322602        2.4006032739
 H         -3.7364793034        2.6053519738        2.0644727701
 H         -4.1595832294        2.9267211596        0.3890016427
 O         -2.2890006546        0.8226746004        1.8018861699
 C         -1.3112459628       -0.1492161424        1.7351055509
 O         -0.6263184904       -0.2631077794        2.7727306644
 H          0.9763560000        0.3936784044       -0.1430359175
 C          1.3190867373       -0.3843259704       -0.8084502153
 C          0.8358156934       -1.6766750520       -0.6504744030
 C          1.2502738739       -2.6522501110       -1.5469908826
 C          2.1224936553       -2.3297928190       -2.5729520407
 C          2.6189102461       -1.0465320373       -2.7119474106
 C          2.2066676922       -0.0623501179       -1.8203297683
 N          2.6825016649        1.2546745569       -1.9131816126
 S          2.9293652027        2.1323570870       -0.5125955785
 O          1.6745556134        2.6135301432        0.0108450235
 O          3.8816086587        3.1532694368       -0.8963779769
 C          3.6983608658        0.9868356496        0.6198531222
 C          4.9651198162        0.5351726300        0.3018683100
 C          5.5780655768       -0.3890254200        1.1310899219
 C          4.9149888657       -0.8493015852        2.2588968596
 C          3.6478667499       -0.3814611226        2.5687306397
 C          3.0306467701        0.5464889198        1.7439947690
 H          2.0419709847        0.9203831756        1.9626687292
 H          3.1246304972       -0.7347412707        3.4432726690
 H          5.3875260672       -1.5744058007        2.9024398991
 H          6.5660707352       -0.7499668569        0.8953319559
 H          5.4526127990        0.9240519607       -0.5772155568
 H          3.4154425402        1.4009301327       -2.5912244805
 H          3.3051368258       -0.8016982818       -3.5079162974
 H          2.4279680018       -3.0939468048       -3.2713817581
 H          0.8755839561       -3.6585131929       -1.4582967776
 C         -0.0782588490       -1.9278965693        0.5241666707
 H          0.5121727082       -1.7313392620        1.4355417703
 C         -0.5620847357       -3.3666028595        0.6296788856
 C         -1.9071505400       -3.6925949336        1.2059004774
 C         -1.6406560860       -3.9206668097       -0.2501881483
 H         -1.5443506195       -4.9391418751       -0.5974915356
 H         -2.0874235536       -3.2521941597       -0.9681847308
 H         -1.9922405016       -4.5493523911        1.8576448690
 H         -2.5449463748       -2.8661553778        1.4856843620
 H          0.2441379297       -4.0441941132        0.8931776606
 O         -1.7658195811       -1.1052488686       -1.7181887178
