  62
        -98.94340575
 C          1.8933961205        0.6507551096       -0.7533763891
 C          2.2294631102        0.1066417085        0.5100045105
 C          3.6598834301        0.1146421081        0.8428260408
 C          4.5469111103        0.6374571187       -0.0233663886
 C          6.0331448103        0.7445140683        0.1867980718
 C          6.8086078802       -0.5308200815       -0.1706261391
 C          6.6425518899       -1.6897242523        0.8130885799
 H          7.4028367999       -2.4325952922        0.5634919394
 H          6.8506047097       -1.3386215231        1.8243096402
 C          5.2632094298       -2.3621189121        0.7723211991
 H          4.7528973200       -2.0904413713       -0.1545499808
 H          5.3879873497       -3.4472491921        0.7627064882
 C          4.3557853296       -2.0211472529        1.9543830592
 H          3.3957122396       -2.5210636027        1.8044366086
 H          4.7959209694       -2.4061080637        2.8769422390
 C          4.0852140198       -0.5213516631        2.1318197204
 H          3.2659094797       -0.4020644135        2.8449974803
 H          4.9700140698       -0.0238307735        2.5285556210
 H          6.5072312304       -0.8542536106       -1.1696290894
 H          7.8678575803       -0.2667025116       -0.2127170487
 H          6.3808563005        1.5516591888       -0.4616846375
 H          6.2382106201        1.0183819774        1.2221429721
 O          4.1788015606        1.1667522197       -1.2213015082
 C          2.8518425407        1.1734272602       -1.6205013585
 O          2.6556133710        1.6743460511       -2.7471422481
 O          1.3836197600       -0.3547317621        1.3184887700
 C          0.4438690306        0.6788629801       -1.1994537293
 C         -0.4065590295        1.4430291494       -0.2133047889
 C          0.0852466005        2.6201181189        0.3449276022
 C         -0.6707159996        3.3465045182        1.2437053326
 C         -1.9439837697        2.9283630981        1.5882504420
 C         -2.4525936097        1.7657820486        1.0239933910
 C         -1.6831183696        1.0281661193        0.1339715505
 H         -2.0969018997        0.1294011897       -0.2919009303
 N         -3.7360400299        1.3107590085        1.3581275504
 S         -4.7253558397        0.6466555296        0.1853442296
 O         -4.5017320394        1.2496735606       -1.1077416598
 O         -6.0638268398        0.7781328893        0.7218270495
 C         -4.2970552699       -1.0807438204        0.1431903183
 C         -4.3483095297       -1.7496019894       -1.0637034323
 C         -4.0658559199       -3.1065674294       -1.0921303133
 C         -3.7383810602       -3.7674915604        0.0815024162
 C         -3.6927996104       -3.0812690914        1.2856397268
 C         -3.9789412402       -1.7259023214        1.3217602878
 H         -3.9492748503       -1.1632558622        2.2397783283
 H         -3.4342920206       -3.5977665222        2.1960451864
 H         -3.5159262803       -4.8226870904        0.0570099554
 H         -4.1009042598       -3.6412426987       -2.0282358538
 H         -4.5955663995       -1.1941419987       -1.9544616519
 H         -4.2501156099        1.9073072681        1.9897121108
 H         -2.5378995598        3.4966587776        2.2879833324
 H         -0.2691684796        4.2512271478        1.6751803635
 H          1.0760655206        2.9554944890        0.0691465326
 H          0.4274214008        1.2285740809       -2.1528665189
 C         -0.0452981896       -0.7343850896       -1.4444945106
 C         -1.0778941894       -1.0118815386       -2.4938959210
 C          0.3460899706       -1.4215315286       -2.7170032411
 H          0.5922840505       -2.4720296487       -2.6822500519
 H          0.9394963508       -0.8563593881       -3.4214112305
 H         -1.8078449095       -1.7840572787       -2.3030748118
 H         -1.4620632592       -0.1719644581       -3.0535883404
 H         -0.0639271298       -1.3288208704       -0.5380521511
