  62
        -98.93985322
 C          2.5790006995        0.0810557912       -0.4884049794
 C          2.2180347435        0.7148017566        0.7237347786
 C          1.7954954906        2.1221069772        0.6227077468
 C          1.7160361796        2.7020194545       -0.5871594498
 C          1.3232571613        4.1178641219       -0.9288597503
 C          0.1305030554        4.7248930454       -0.1787388995
 C         -0.9746983613        3.7318496532        0.2118256374
 H         -1.9376593217        4.1230605795       -0.1235320125
 H         -0.8280446369        2.7711614193       -0.2875864506
 C         -1.0603298086        3.5066049758        1.7231166929
 H         -2.0476249989        3.1029856681        1.9606140702
 H         -0.9637097920        4.4709617636        2.2284916675
 C         -0.0355180376        2.5290740069        2.2969158297
 H         -0.1210257907        2.5537808727        3.3866416828
 H         -0.2890851463        1.5138317427        1.9809367763
 C          1.4287841974        2.7951598468        1.9142292899
 H          1.6397978094        3.8621698416        1.8820406691
 H          2.0602659829        2.3368286404        2.6807455152
 H          0.4848963379        5.2273062175        0.7204966436
 H         -0.2882358236        5.4967221746       -0.8268235522
 H          1.1097898258        4.0988330169       -2.0003468885
 H          2.1993805414        4.7575337173       -0.7857258867
 O          2.0436666998        2.0422559614       -1.7347986913
 C          2.4741208261        0.7287116071       -1.7169000175
 O          2.7351026321        0.2555235487       -2.8436681115
 O          2.2645253147        0.1408499718        1.8439896036
 C          2.9956292206       -1.3782589554       -0.4934734710
 C          1.8619469138       -2.2344505457        0.0206761972
 C          2.0499842104       -3.3492515899        0.8279433893
 C          0.9627473709       -4.0849726198        1.2675987279
 C         -0.3271021745       -3.7178634716        0.9301086888
 C         -0.5247393537       -2.6111577415        0.1127684108
 C          0.5672077064       -1.8974453820       -0.3508182600
 H          0.4020052153       -1.0417993700       -0.9890083506
 N         -1.8204318792       -2.1980433359       -0.2664378274
 S         -2.1496809374       -0.5497587231       -0.0441343621
 O         -1.5289721675        0.2129334912       -1.0973170579
 O         -1.8217660093       -0.1744723700        1.3121635895
 C         -3.9187462938       -0.5484352525       -0.2669906055
 C         -4.7461478864       -0.5306044983        0.8395638467
 C         -6.1189850254       -0.5650561371        0.6505013093
 C         -6.6374006023       -0.6198554064       -0.6344474868
 C         -5.7938680095       -0.6362318325       -1.7355696703
 C         -4.4205762105       -0.6008174822       -1.5533438943
 H         -3.7251962637       -0.6030489713       -2.3767046704
 H         -6.2001145199       -0.6761141105       -2.7333437574
 H         -7.7057836809       -0.6474920652       -0.7792886701
 H         -6.7769967482       -0.5490556283        1.5042939462
 H         -4.2968562472       -0.4796435173        1.8184223223
 H         -2.5346976953       -2.7424907295        0.2018670331
 H         -1.1741029757       -4.2793230140        1.2951624112
 H          1.1219887949       -4.9473233285        1.8971976704
 H          3.0469860908       -3.6366754008        1.1198030732
 H          3.1643535196       -1.6397995682       -1.5494569041
 C          4.2892867431       -1.5710801316        0.2703982425
 C          5.2594908507       -2.6372866949       -0.1388834992
 C          5.5797534466       -1.1957317592       -0.3920526552
 H          6.3458967999       -0.7219182124        0.2028291483
 H          5.5245436223       -0.8277285566       -1.4065758699
 H          5.8118773231       -3.1545502831        0.6310849264
 H          4.9988333419       -3.2522078475       -0.9871033799
 H          4.1841108661       -1.3471768238        1.3256184884
