  62
        -98.94244030
 C         -1.5694648108       -1.3576660081        0.2632252203
 C         -2.0411664005       -0.8374731983       -0.9670411599
 C         -2.8813623898        0.3661426622       -0.8681979703
 C         -3.1831037195        0.8669679429        0.3434754295
 C         -3.9553541287        2.1322548334        0.5787355790
 C         -3.0125933680        3.3395842629        0.6844125286
 C         -1.9712834380        3.4103426918       -0.4329800715
 H         -1.3721346575        4.3081329715       -0.2652752218
 H         -1.2964212185        2.5545412315       -0.3483373212
 C         -2.5659758980        3.4534121217       -1.8481314815
 H         -2.0425790276        4.2193036011       -2.4247191918
 H         -3.6153093278        3.7466079823       -1.7988144516
 C         -2.4456034088        2.1461874613       -2.6341884410
 H         -2.7065253287        2.3517422610       -3.6758169711
 H         -1.4070172990        1.8034468807       -2.6224407709
 C         -3.3373362095        0.9933612620       -2.1551471505
 H         -4.3715268093        1.3340326926       -2.0786215706
 H         -3.2900753599        0.2020937517       -2.9092215002
 H         -2.4877211180        3.2828684029        1.6402056586
 H         -3.6133664975        4.2506718232        0.6805282282
 H         -4.6624681587        2.2790021735       -0.2351224010
 H         -4.5082462188        2.0311141041        1.5139260391
 O         -2.7647910098        0.3014251230        1.5034064497
 C         -1.9361856005       -0.8099657275        1.4930960301
 O         -1.6024335907       -1.2128347972        2.6238933403
 H          0.3655349799       -0.1318260996       -0.5555352602
 C          1.0649946294       -0.9433492801       -0.7108130499
 C          0.7089090887       -2.2352386497       -0.3554122194
 C          1.6408607781       -3.2488618403       -0.5622021790
 C          2.8856975082       -2.9728705413       -1.0985524192
 C          3.2315064990       -1.6803129616       -1.4547746297
 C          2.3043765696       -0.6675679610       -1.2707279600
 N          2.6585957104        0.6643197387       -1.6133771805
 S          3.5107009308        1.4457361286       -0.3990146609
 O          3.6479918116        2.8202663884       -0.8222510814
 O          4.7301648704        0.7173635080       -0.1645035606
 C          2.4411993608        1.3422028498        1.0239228092
 C          1.5002126414        2.3325763904        1.2218836489
 C          0.5962085413        2.1987172013        2.2633521289
 C          0.6370947307        1.0748419816        3.0739035093
 C          1.5850817801        0.0868823710        2.8577759797
 C          2.4962640802        0.2169487301        1.8222988496
 H          3.2471974497       -0.5303814605        1.6218554099
 H          1.5994757296       -0.7902187088        3.4841403300
 H         -0.0834951394        0.9537106524        3.8671516494
 H         -0.1424070982        2.9657957718        2.4345126686
 H          1.4982165119        3.1897819502        0.5669228285
 H          1.8561525207        1.2316148590       -1.8509045007
 H          4.2001180291       -1.4397651024       -1.8609079798
 H          3.5960011077       -3.7724848718       -1.2420314189
 H          1.3858315775       -4.2615952001       -0.2936233486
 C         -0.6237756515       -2.5387636187        0.2927017007
 H         -0.4336228016       -2.7443710584        1.3568377708
 C         -1.2727056022       -3.7658648085       -0.3254026588
 C         -1.0870721130       -5.1215383484        0.2849354417
 C         -2.4078785626       -4.4238182176        0.3986278415
 H         -3.2441344828       -4.7913716773       -0.1766913483
 H         -2.6859061923       -4.0115321671        1.3581481713
 H         -0.4860942831       -5.1960554084        1.1790085317
 H         -1.0137459135       -5.9754886687       -0.3714773779
 H         -1.3456495622       -3.6979753689       -1.4043596588
 O         -1.7602782008       -1.3296519489       -2.0911559697
