  62
        -98.94065875
 C          1.1992086094        1.2570498286       -0.1988972708
 C          2.2163879855        1.0940801071        0.7738948919
 C          3.0719413728       -0.1025831050        0.6667041907
 C          2.8351610056       -0.9745974396       -0.3305948654
 C          3.6011428685       -2.2240277861       -0.6764979391
 C          4.9396913051       -1.9225683633       -1.3706160775
 C          5.7501498108       -0.7907278110       -0.7445149130
 H          6.6144478102       -0.6062116542       -1.3881122886
 H          5.1502347935        0.1211417448       -0.7406084739
 C          6.2686709385       -1.0634046067        0.6654893885
 H          6.9008534355       -1.9541354524        0.6490131481
 H          6.8984930189       -0.2160213850        0.9486200410
 C          5.2018182626       -1.2440619008        1.7474560036
 H          4.7557280276       -2.2335951852        1.6968535556
 H          5.7075968243       -1.1820659509        2.7155408828
 C          4.1148830051       -0.1736166872        1.7557698334
 H          3.5548884294       -0.2532876109        2.6953786508
 H          4.5866902477        0.8151024529        1.7870301002
 H          4.7280286711       -1.6450494022       -2.4060902912
 H          5.5360776095       -2.8364758460       -1.3820960138
 H          3.7570369844       -2.8279352490        0.2126303661
 H          2.9777260301       -2.7954432865       -1.3674438059
 O          1.8322754649       -0.7881981447       -1.2326478382
 C          0.9894912616        0.3052487421       -1.1964101199
 O          0.1270754871        0.3011473454       -2.0970401809
 H         -1.7796883164        1.3269053453       -1.3515993866
 C         -1.9788510033        1.5006326829       -0.3055798230
 C         -1.0125387589        2.1068190324        0.4844321029
 C         -1.2761930072        2.2807735431        1.8388793409
 C         -2.4762583999        1.8613597953        2.3858380050
 C         -3.4328062854        1.2465658518        1.5967149578
 C         -3.1708853820        1.0574390117        0.2464978411
 N         -4.1144009079        0.3754666754       -0.5576711580
 S         -4.3149805377       -1.2414286295       -0.1627520916
 O         -4.9921584023       -1.8401719744       -1.2903202408
 O         -4.9966943608       -1.3243216334        1.1044342666
 C         -2.6651063039       -1.9020111021       -0.0057051179
 C         -2.0507302656       -2.4321750804       -1.1217672378
 C         -0.7565580770       -2.9123753092       -1.0106395733
 C         -0.0971005729       -2.8396274586        0.2059183848
 C         -0.7217629980       -2.2895321628        1.3140609468
 C         -2.0201037617       -1.8179458602        1.2119059833
 H         -2.5419070694       -1.3953800793        2.0548551299
 H         -0.2001680348       -2.2241068402        2.2557794753
 H          0.9123187851       -3.2101150310        0.2912374848
 H         -0.2626665571       -3.3285737525       -1.8738870522
 H         -2.5963719917       -2.4709521361       -2.0510397138
 H         -3.8926896558        0.4388065698       -1.5424131981
 H         -4.3622506029        0.8873378948        2.0080892725
 H         -2.6671298015        2.0084279391        3.4380894605
 H         -0.5213393170        2.7339228168        2.4652910535
 C          0.3265279828        2.4976255503       -0.0894337512
 H          0.8322715865        3.1409616089        0.6426148584
 C          0.2076005407        3.2545832796       -1.3963786359
 C         -0.2837441977        4.6700261296       -1.3728498819
 C          1.1543630538        4.3806597908       -1.6790364341
 H          1.5051895652        4.5164908700       -2.6911357977
 H          1.8933959399        4.6146694611       -0.9267281136
 H         -0.9231386838        5.0077026847       -2.1740004553
 H         -0.5207827062        5.0991353767       -0.4110536843
 H         -0.0817191214        2.6343984928       -2.2347671302
 O          2.4174894969        1.9268688536        1.6983473729
