  62
        -98.93919891
 C          1.8084498698        0.7345018207        0.5472096208
 C          3.1173858797        0.7561768908        1.0946388111
 C          3.9683975301       -0.4007525688        0.7891087506
 C          3.4574654905       -1.4194890986        0.0745042899
 C          4.2289759609       -2.6292449981       -0.3645784806
 C          4.8600769910       -2.4113312272       -1.7470891904
 C          5.6235259707       -1.0932544969       -1.8787028596
 H          6.0483596609       -1.0631279363       -2.8844622895
 H          4.9172209905       -0.2627300972       -1.8056955092
 C          6.7423767905       -0.9001381572       -0.8453809693
 H          7.0079657207       -1.8611591974       -0.4035303698
 H          7.6297454905       -0.5224859367       -1.3577083389
 C          6.4137721701        0.0958954021        0.2684408412
 H          7.3375638299        0.3184381120        0.8089132815
 H          6.0594855799        1.0324509822       -0.1703609083
 C          5.3810886700       -0.3750398988        1.3002492308
 H          5.3874569297        0.3404241008        2.1277832312
 H          5.6694743602       -1.3535135189        1.6891245703
 H          5.5331117813       -3.2451223569       -1.9547985208
 H          4.0650914812       -2.4217695870       -2.4965803205
 H          5.0027974508       -2.8463821183        0.3691667194
 H          3.5425025411       -3.4757419483       -0.4180710312
 O          2.1757192506       -1.4396146187       -0.3690847803
 C          1.3188164702       -0.3654175290       -0.1581756699
 O          0.1792737704       -0.5339057490       -0.6301920401
 O          3.5499697494        1.7002630805        1.8071094117
 C          0.9295456895        1.9468261604        0.7965417114
 C         -0.4664099605        1.5188910098        1.1689135709
 C         -0.6462343105        0.7481800791        2.3150241704
 C         -1.8990843404        0.2965526086        2.6809713900
 C         -3.0058067903        0.6057601787        1.9089247700
 C         -2.8389628204        1.3801827094        0.7704002104
 C         -1.5810840904        1.8399928299        0.4093138409
 H         -1.4767052704        2.4125861804       -0.4994791188
 N         -3.9839116503        1.6616167895       -0.0269973496
 S         -4.2342165098        0.5141208101       -1.2455121503
 O         -3.1712187097        0.5697403510       -2.2263369501
 O         -5.5562407298        0.7892420201       -1.7685560504
 C         -4.2286489895       -1.0342198703       -0.3761989211
 C         -3.0309341594       -1.6906383301       -0.1707959413
 C         -3.0444515992       -2.8811948005        0.5400007980
 C         -4.2394335592       -3.3873695011        1.0281066075
 C         -5.4319652893       -2.7134966013        0.8103174677
 C         -5.4288297395       -1.5225104209        0.1028594084
 H         -6.3279028296       -0.9621300111       -0.0950747115
 H         -6.3593488593       -3.1106229118        1.1905146773
 H         -4.2395497990       -4.3134911914        1.5812922370
 H         -2.1148042991       -3.4005447404        0.7110941579
 H         -2.1135065995       -1.2695129997       -0.5539799509
 H         -3.9128244205        2.5604275298       -0.4883017391
 H         -3.9899176003        0.2572089983        2.1767227196
 H         -2.0161821304       -0.3042281120        3.5696916196
 H          0.2212130995        0.4949475190        2.9096048504
 H          1.3822961792        2.4385390100        1.6740024717
 C          0.9630799894        2.9640025810       -0.3354987481
 C          2.1567500695        3.0884778118       -1.2329566278
 C          0.8660437697        2.5551040118       -1.7741099183
 H          0.2953156597        3.1755484020       -2.4505187481
 H          0.7884730801        1.5005290619       -1.9911136289
 H          2.4722888593        4.0765161321       -1.5325027372
 H          2.9728253197        2.3969406019       -1.0828462180
 H          0.4738182091        3.8940056207       -0.0606111276
