  62
        -98.94363828
 C          2.6377705800        0.1296296165       -0.2002325027
 C          2.1682968344        0.9134627124        0.8831803096
 C          1.7547894765        2.2871094148        0.5506128006
 C          1.8120844398        2.7113545790       -0.7234253353
 C          1.3835088494        4.0681138264       -1.2020038696
 C         -0.0864887224        4.0743341975       -1.6409992966
 C         -1.0453542398        3.4609165970       -0.6196656117
 H         -2.0570150139        3.5772135677       -1.0164029004
 H         -0.8599031003        2.3861204814       -0.5464290774
 C         -0.9722337414        4.0871617675        0.7796778747
 H         -1.9899108314        4.2366708586        1.1466966309
 H         -0.4980602759        5.0684898586        0.7228736578
 C         -0.2491224738        3.2313611113        1.8217126567
 H         -0.6507401879        2.2146639632        1.8017803209
 H         -0.4629074275        3.6475420920        2.8105288275
 C          1.2767203757        3.1545444576        1.6809699011
 H          1.6904403999        4.1621140524        1.5931274280
 H          1.6699065299        2.6984907783        2.5944967311
 H         -0.3796752003        5.1069039169       -1.8420864981
 H         -0.1729895590        3.5062206307       -2.5700928676
 H          1.5378584258        4.7920121150       -0.4039487236
 H          2.0080121385        4.3412538178       -2.0547041671
 O          2.2545003108        1.9284248087       -1.7408263304
 C          2.6550101003        0.6259922616       -1.5064142852
 O          3.0254849869        0.0149421476       -2.5311058733
 O          2.0975442494        0.5166039090        2.0769794104
 C          3.0618948762       -1.3248515418       -0.0748095531
 C          1.8769294685       -2.2400835709       -0.2875836945
 C          2.0121739235       -3.4340853373       -0.9874568274
 C          0.9152449377       -4.2456013774       -1.2138394385
 C         -0.3420158774       -3.8679991285       -0.7770449835
 C         -0.4856336239       -2.6796873989       -0.0710374727
 C          0.6250826108       -1.8930153073        0.1946400009
 H          0.4920068619       -0.9822729443        0.7578317824
 N         -1.7418690697       -2.2408606058        0.3794722560
 S         -2.0328566171       -0.5751214827        0.2654678273
 O         -1.4275170473       -0.0521756683       -0.9380519654
 O         -1.6547542269        0.0457632825        1.5085085943
 C         -3.8104970755       -0.5643353592        0.1207682825
 C         -4.3888831342       -0.4584072074       -1.1296308123
 C         -5.7709312256       -0.4883824014       -1.2336184631
 C         -6.5460763034       -0.6272548846       -0.0921035097
 C         -5.9509425102       -0.7312233364        1.1565653961
 C         -4.5699705935       -0.7000697463        1.2677401372
 H         -4.0618794960       -0.7670998758        2.2156356164
 H         -6.5566620440       -0.8356598051        2.0421436741
 H         -7.6210305373       -0.6513096938       -0.1759175259
 H         -6.2359291421       -0.4034505687       -2.2025430392
 H         -3.7447652940       -0.3446336782       -1.9870145799
 H         -2.5075149594       -2.7810254621       -0.0008227391
 H         -1.2048651713       -4.4828983351       -0.9834660885
 H          1.0346209702       -5.1690506613       -1.7597380031
 H          2.9809797913       -3.7135117533       -1.3734023225
 H          3.7658114636       -1.5049982019       -0.9005878660
 C          3.7598264583       -1.6641492081        1.2276164092
 C          4.7682009924       -2.7717598501        1.2565763711
 C          5.2151658627       -1.3473161132        1.3865190070
 H          5.5606309147       -0.9935558743        2.3458987798
 H          5.7192153513       -0.8918180976        0.5462736339
 H          4.8080088216       -3.4048394475        2.1294560191
 H          4.9828896059       -3.2834335613        0.3309067335
 H          3.1268296032       -1.5345625919        2.0956248320
