  62
        -98.94311879
 C          1.4863778416        1.3773446446       -0.3225758160
 C          1.5729555484       -0.0050352141       -0.6248013632
 C          2.6558421497       -0.7380236473        0.0482402930
 C          3.4616898631       -0.1076455415        0.9193305338
 C          4.5862074562       -0.7303028136        1.7017994166
 C          5.9044123574       -0.8425014328        0.9233056724
 C          5.9277971037       -1.9105834905       -0.1710144838
 H          6.9684854236       -2.0300939504       -0.4788442926
 H          5.6001575313       -2.8630832931        0.2467534116
 C          5.0834045005       -1.5706267116       -1.4070184004
 H          4.8589897834       -0.5015276245       -1.4106843220
 H          5.6597516433       -1.7810101752       -2.3107239212
 C          3.7728522035       -2.3506980545       -1.5124875758
 H          3.2377004096       -2.0051443779       -2.4003924455
 H          3.9878134291       -3.4138960842       -1.6406158728
 C          2.8434956002       -2.1828750127       -0.3036177182
 H          3.2330719891       -2.7333829459        0.5527632078
 H          1.8622361176       -2.5923683309       -0.5571828858
 H          6.1349860976        0.1320503491        0.4867655452
 H          6.6892081210       -1.0768222413        1.6462746042
 H          4.2826842526       -1.7166901113        2.0548010030
 H          4.7519208156       -0.0882742491        2.5698662573
 O          3.3272716133        1.2145386629        1.2096700553
 C          2.3498611221        1.9797156883        0.5958368221
 O          2.3522015172        3.1797607932        0.9410371250
 O          0.8054728607       -0.6158399629       -1.4106510549
 C          0.4322160367        2.3015951529       -0.9094630180
 C         -0.7931921344        2.3514590785       -0.0295453921
 C         -1.4760650270        3.5451891929        0.1753806995
 C         -2.6012112758        3.5798977668        0.9798553238
 C         -3.0599589229        2.4324402328        1.6003729078
 C         -2.3723972221        1.2358917694        1.4188462352
 C         -1.2555832056        1.2031277496        0.5962667138
 H         -0.7243569879        0.2749789854        0.4715209421
 N         -2.7836768234        0.0808325750        2.0869346616
 S         -2.3931793539       -1.4791375927        1.6496339210
 O         -3.1589154527       -2.2856715800        2.5774398157
 O         -0.9658318523       -1.6726688038        1.6729658575
 C         -3.0680049662       -1.6981906048        0.0135738037
 C         -2.2607301525       -1.6932696273       -1.1045733962
 C         -2.8504370633       -1.8632752704       -2.3492207635
 C         -4.2217726998       -2.0258224340       -2.4562827111
 C         -5.0191596703       -2.0259334742       -1.3209901913
 C         -4.4385030132       -1.8622935834       -0.0752816177
 H         -5.0179405679       -1.8789019684        0.8334294303
 H         -6.0862960178       -2.1549213343       -1.4040258455
 H         -4.6706563875       -2.1553810115       -3.4284633109
 H         -2.2242217064       -1.8637874164       -3.2268462387
 H         -1.1951238779       -1.5515229038       -1.0100533432
 H         -3.6546959240        0.1432920965        2.5898465338
 H         -3.9301663236        2.4619340035        2.2377445655
 H         -3.1239021059        4.5120408354        1.1312883138
 H         -1.1074210928        4.4523109191       -0.2804391425
 H          0.8841390428        3.3069288869       -0.8927274124
 C          0.0955613080        1.9792525972       -2.3595113531
 C         -1.1959003349        1.3524726357       -2.7806061974
 C         -0.9256552316        2.7895610733       -3.1020755243
 H         -0.7183641649        3.0616919899       -4.1259441808
 H         -1.4733028897        3.5361381188       -2.5483073795
 H         -1.1611262206        0.6246231063       -3.5758007350
 H         -1.9223040196        1.1243452863       -2.0157306994
 H          0.9774876803        1.6834704728       -2.9182024380
