  62
        -98.93755485
 C         -1.8600831343       -0.5426210041       -0.8589689758
 C         -2.2439292703       -0.0323298957        0.4024088458
 C         -3.6889949308       -0.0360627502        0.6991733438
 C         -4.5527524775       -0.5079138054       -0.2193122451
 C         -6.0577860079       -0.6762209260       -0.1818352825
 C         -6.8929656735       -0.0073159400        0.9065484750
 C         -6.9446634496        1.5179861278        0.8242959337
 H         -7.5268864293        1.7978900660       -0.0573138778
 H         -7.4743053364        1.8901289708        1.7039746407
 C         -5.5922092139        2.2189007114        0.7239435858
 H         -5.0930960023        1.9223646939       -0.2008121384
 H         -5.7777769997        3.2944667755        0.6586461284
 C         -4.6441029250        1.9816560454        1.8975993347
 H         -5.1439102307        2.2428366437        2.8324323170
 H         -3.7922060002        2.6554402405        1.7736991479
 C         -4.0882074284        0.5526554810        2.0217325128
 H         -4.7876992151       -0.1002665421        2.5382629061
 H         -3.1751698426        0.5961317532        2.6227823113
 H         -6.5563213843       -0.3261302469        1.8885641791
 H         -7.9144546445       -0.3786556964        0.7867431699
 H         -6.4183722258       -0.3478950830       -1.1619453059
 H         -6.2329982834       -1.7569441933       -0.1372789616
 O         -4.1296645016       -0.9955909528       -1.4238714500
 C         -2.7922265398       -1.0241065079       -1.7747313102
 O         -2.5656343199       -1.4977977362       -2.9071924205
 O         -1.4211732505        0.3995634627        1.2506312496
 C         -0.3949675108       -0.5754563234       -1.2491939830
 C          0.4102376844       -1.3804406353       -0.2574603141
 C         -0.1210523947       -2.5588375523        0.2601413536
 C          0.5948722550       -3.3218289750        1.1614354997
 C          1.8675284511       -2.9403075343        1.5480447769
 C          2.4159511077       -1.7771854944        1.0237718235
 C          1.6859318003       -1.0020335403        0.1324702208
 H          2.1302399557       -0.1030762008       -0.2611665140
 N          3.7016340385       -1.3597367838        1.3976417809
 S          4.7388079339       -0.7215689258        0.2510216420
 O          4.5201194794       -1.3056307289       -1.0515888141
 O          6.0605642885       -0.9048966502        0.8132351713
 C          4.3742730201        1.0205744254        0.2151233817
 C          4.0537070454        1.6675703449        1.3920613159
 C          3.8190079576        3.0329440196        1.3616600460
 C          3.9172755296        3.7267676194        0.1650131712
 C          4.2466485777        3.0636282204       -1.0068594235
 C          4.4777420278        1.6968478619       -0.9842550075
 H          4.7240651546        1.1399844285       -1.8743157255
 H          4.3228005977        3.6040487427       -1.9371923087
 H          3.7349175591        4.7897231380        0.1449650405
 H          3.5593914323        3.5513586682        2.2706582757
 H          3.9825545059        1.0989189628        2.3040722562
 H          4.1830754288       -1.9799973760        2.0322844033
 H          2.4305851277       -3.5375887529        2.2491755373
 H          0.1625760910       -4.2269577987        1.5611440603
 H         -1.1108477296       -2.8664452036       -0.0494695978
 H         -0.3491278437       -1.0956419002       -2.2181893708
 C          0.1200818970        0.8381771788       -1.4314886613
 C          1.1935869140        1.1352603712       -2.4334576602
 C         -0.2163047743        1.5702176180       -2.6946663386
 H         -0.4514698012        2.6220906324       -2.6351054368
 H         -0.7902338861        1.0352334339       -3.4377329343
 H          1.9250579218        1.8915865645       -2.1916033179
 H          1.5879426774        0.3086539681       -3.0058036530
 H          0.1127037512        1.4032939209       -0.5063729350
