  62
        -98.93725365
 C          1.7354496276        1.4491780789       -0.0208245544
 C          3.0421461777        1.2650168881        0.5007253705
 C          3.8396804953        0.1602690051       -0.0603539434
 C          3.2875638772       -0.6267682245       -0.9992907015
 C          3.8789566051       -1.8506109375       -1.6424137209
 C          3.4702718528       -3.1180261072       -0.8717393182
 C          4.4026460239       -3.5009976630        0.2763507520
 H          5.3520990752       -3.8522066123       -0.1332740862
 H          3.9427587412       -4.3403159801        0.8029096146
 C          4.6867298030       -2.3852812414        1.2852031253
 H          5.0312900110       -2.8502278002        2.2109223195
 H          3.7617053762       -1.8535877417        1.5160385762
 C          5.7529624978       -1.3907242739        0.8026041544
 H          6.2563581942       -1.8012215770       -0.0725434083
 H          6.5182610037       -1.2773396795        1.5734753737
 C          5.2337631775        0.0190542215        0.4877165646
 H          5.9298154774        0.5086714529       -0.2022721060
 H          5.2329128985        0.6176006391        1.4042831586
 H          3.4322913245       -3.9560843626       -1.5705124517
 H          2.4591945943       -2.9656443369       -0.4856292439
 H          4.9589465508       -1.7658976021       -1.7168547767
 H          3.4617426361       -1.9048709936       -2.6502302168
 O          2.0265044486       -0.4260057922       -1.4651422650
 C          1.2222452220        0.6089398236       -1.0105885102
 O          0.1131009735        0.6518118910       -1.5728727958
 O          3.5229165203        1.9927544334        1.4102440754
 C          0.8897079762        2.5462391519        0.6060605755
 C         -0.4174873749        1.9487616609        1.0570947107
 C         -0.4872440129        1.2733658414        2.2718616161
 C         -1.6541785286        0.6434259239        2.6636171784
 C         -2.7639161565        0.6451035263        1.8364512959
 C         -2.6943547805        1.2987459248        0.6131297558
 C         -1.5389680778        1.9742710803        0.2438731120
 H         -1.4972290839        2.4791585995       -0.7082911243
 N         -3.7906317247        1.2512608407       -0.2640993818
 S         -4.6126869550       -0.1976425838       -0.4059773253
 O         -5.1401834420       -0.2063705130       -1.7534637245
 O         -5.6014247187       -0.2852949811        0.6427318808
 C         -3.4246843413       -1.5175727564       -0.1974411883
 C         -3.7695703112       -2.5890365044        0.6032024529
 C         -2.8728274894       -3.6337860645        0.7551498503
 C         -1.6468403845       -3.5897082690        0.1089958297
 C         -1.3166842094       -2.5076401247       -0.6911468291
 C         -2.2116764344       -1.4616782106       -0.8535749876
 H         -1.9430149558       -0.6112612574       -1.4598320670
 H         -0.3615317524       -2.4551366414       -1.1907041847
 H         -0.9448670433       -4.3998552805        0.2303836832
 H         -3.1298830023       -4.4753549633        1.3781246437
 H         -4.7283716056       -2.5772791363        1.0960571586
 H         -3.5927945083        1.6425427928       -1.1737197084
 H         -3.6775303878        0.1460579059        2.1173527850
 H         -1.6984267805        0.1338598293        3.6139652312
 H          0.3895726728        1.2404023605        2.9034444089
 H          1.4577018944        2.8489967748        1.4998719411
 C          0.7124681285        3.7996948580       -0.2369162945
 C          1.8763646968        4.3742133935       -0.9868407726
 C          0.7114135965        3.8023683189       -1.7348391266
 H          0.0434148309        4.4857788261       -2.2394020382
 H          0.8384689158        2.8626771681       -2.2480381181
 H          2.0170825771        5.4444995516       -0.9864954324
 H          2.7982522374        3.8109504785       -0.9733499823
 H          0.0498334918        4.5121643926        0.2458782773
