  62
        -98.94436881
 C         -1.8495279853       -1.0562053001       -0.1846294819
 C         -2.3660612049        0.0859958762       -0.8421391561
 C         -3.8304523731        0.2198369391       -0.8325562784
 C         -4.5768970779       -0.7306314173       -0.2409144929
 C         -6.0721172206       -0.6933299692       -0.1166306914
 C         -6.5046209995       -0.0151583123        1.1909028896
 C         -5.8188264795        1.3268673460        1.4470025826
 H         -6.2237873373        1.7263085261        2.3793313804
 H         -4.7513523774        1.1580568834        1.6060680562
 C         -6.0043082025        2.3588997011        0.3259472964
 H         -6.8464411364        2.0732777846       -0.3054574334
 H         -6.2487602162        3.3238432994        0.7750528389
 C         -4.7672313151        2.5754150223       -0.5478546213
 H         -3.8980873365        2.7690715453        0.0861934905
 H         -4.9328560267        3.4685081292       -1.1564646974
 C         -4.4173230853        1.4288406393       -1.5048895687
 H         -5.2973729188        1.1567369351       -2.0913565686
 H         -3.6461389403        1.7927192174       -2.1904136628
 H         -7.5865733804        0.1263549172        1.1647686966
 H         -6.2692738928       -0.6840292708        2.0219322447
 H         -6.4888148285       -0.1613028826       -0.9696068222
 H         -6.4433421746       -1.7195135087       -0.1233198840
 O         -4.0438100642       -1.8242435270        0.3615095481
 C         -2.6719421526       -2.0092234117        0.4157104258
 O         -2.3137348752       -3.0412562220        1.0181454180
 H          1.8237518738        0.1886373839       -1.0382663563
 C          1.4242555990        0.5364846301       -0.1007178837
 C          0.3338120403       -0.0889733493        0.4819709851
 C         -0.1510412811        0.4050605839        1.6913358317
 C          0.4205401417        1.5131838029        2.2836204400
 C          1.4992205100        2.1460842622        1.6902696109
 C          1.9990119214        1.6546548851        0.4913698491
 N          3.0864861912        2.2804441508       -0.1342567631
 S          4.2545090379        1.3708650263       -0.9013835546
 O          5.4221687632        2.2261939646       -0.9186426850
 O          3.7889767583        0.9204378791       -2.1883262198
 C          4.5419711028       -0.0268738276        0.1706347568
 C          4.8530619162        0.2107910815        1.4952288773
 C          5.0741876486       -0.8676828619        2.3357153988
 C          4.9850823878       -2.1598231703        1.8402916300
 C          4.6798177126       -2.3816922111        0.5068335003
 C          4.4544810831       -1.3059158619       -0.3374511397
 H          4.2094579290       -1.4340375401       -1.3790357450
 H          4.6145193788       -3.3866604431        0.1209888577
 H          5.1559776246       -2.9985571740        2.4965774509
 H          5.3146185945       -0.6987400472        3.3729718192
 H          4.9259713046        1.2257754703        1.8500414801
 H          3.4822412764        3.0587100414        0.3713236967
 H          1.9411369720        3.0198309848        2.1444255173
 H          0.0254542036        1.8891788445        3.2153616876
 H         -0.9960750927       -0.0883114265        2.1527557465
 C         -0.3488477730       -1.2846772303       -0.1347447078
 H         -0.1939355364       -2.1490088915        0.5275655850
 C          0.1610876682       -1.6340417179       -1.5170567915
 C          1.3545961181       -2.5237230418       -1.6823031040
 C         -0.0134615719       -3.0357550255       -2.0165790040
 H         -0.2719830961       -3.1856184329       -3.0541470630
 H         -0.4744862967       -3.7452467476       -1.3446811074
 H          1.8284586265       -2.8932640687       -0.7856799654
 H          2.0359672099       -2.3184879882       -2.4945898902
 H          0.0208090689       -0.8292386312       -2.2302264201
 O         -1.6456802721        0.9498476040       -1.4073988966
