  62
        -98.93599994
 C         -2.7305341977       -1.1348483212       -0.2362655265
 C         -2.4877433192       -0.0050871654       -1.0560317892
 C         -3.3621179490        1.1537625218       -0.8210541729
 C         -4.3148363008        1.1017599440        0.1261363588
 C         -5.2866421259        2.1972793386        0.4711020289
 C         -4.7242311955        3.2478422538        1.4385861185
 C         -3.6927575572        4.2022559735        0.8355575530
 H         -4.0966898286        4.6419254781       -0.0769051560
 H         -3.5498898033        5.0131327768        1.5524981936
 C         -2.3301827407        3.5595986778        0.5404834644
 H         -1.5335298052        4.2139062367        0.9015448387
 H         -2.2439983454        2.6186269726        1.0892639667
 C         -2.0633251522        3.2955106881       -0.9413781036
 H         -1.0880432027        2.8110187161       -1.0334720818
 H         -2.0195197244        4.2442535378       -1.4806772112
 C         -3.1043909250        2.3960643661       -1.6204483444
 H         -4.0321036370        2.9460180112       -1.7760087329
 H         -2.7108873497        2.0898820608       -2.5929364867
 H         -5.5672806985        3.8404044015        1.8011774535
 H         -4.2866081617        2.7329308759        2.2969981985
 H         -5.6276515050        2.6863880509       -0.4418069183
 H         -6.1423606067        1.7138081582        0.9471917590
 O         -4.5182441587       -0.0020655466        0.8931503420
 C         -3.7325688184       -1.1303558292        0.7397527078
 O         -4.0248322215       -2.0628309227        1.5148880207
 H         -0.0036953296       -0.5518015055       -0.4807779971
 C          0.2325083985       -1.3120164470        0.2499309054
 C         -0.6601696424       -2.3561189199        0.4508195754
 C         -0.3382625114       -3.3338180122        1.3839799073
 C          0.8487236420       -3.2662904062        2.0934664260
 C          1.7366346464       -2.2254343663        1.8886404802
 C          1.4225153963       -1.2423411886        0.9591564071
 N          2.3164348189       -0.1663503094        0.7424324783
 S          3.8238368126       -0.6088048171        0.1107645251
 O          3.6550577519       -1.2275155869       -1.1870417406
 O          4.5215150821       -1.3925967383        1.0971172423
 C          4.5948148623        0.9873670029       -0.0597369130
 C          4.4277487957        1.6920965484       -1.2364481571
 C          4.9999876896        2.9491662947       -1.3515898635
 C          5.7234381717        3.4775762222       -0.2929777888
 C          5.8827008283        2.7575271899        0.8815736286
 C          5.3126006238        1.5003057486        1.0032100717
 H          5.4146858014        0.9016075359        1.8930690614
 H          6.4481391851        3.1710150218        1.7010373966
 H          6.1675924303        4.4560399746       -0.3859055835
 H          4.8790680007        3.5100426119       -2.2644236544
 H          3.8667953570        1.2398438293       -2.0391680899
 H          1.9048960119        0.5069064456        0.1069576653
 H          2.6710725996       -2.1715134952        2.4223492168
 H          1.0859070952       -4.0334186345        2.8150986358
 H         -1.0294783413       -4.1459884641        1.5573106518
 C         -1.9391592631       -2.4290200233       -0.3429547883
 H         -2.5772704152       -3.1925248893        0.1289814493
 C         -1.7146992174       -2.8613064859       -1.7874205774
 C         -0.3760500009       -2.9002214228       -2.4559464432
 C         -1.0594189722       -4.1786137007       -2.0803448933
 H         -1.4685076518       -4.8003729803       -2.8621325140
 H         -0.6569595342       -4.7284131559       -1.2425146589
 H          0.4978953829       -2.6034314703       -1.8960954028
 H         -0.3322433553       -2.6200231813       -3.4976449742
 H         -2.5524980793       -2.5882429783       -2.4213748590
 O         -1.5952421249        0.0594603732       -1.9414892277
