  62
        -98.94493604
 C         -2.1922124563       -0.9535741204        0.5413776430
 C         -2.3410096897       -0.1695563259       -0.6285868418
 C         -3.1370354457        1.0553010205       -0.4752679739
 C         -3.6213312546        1.3938183745        0.7332428380
 C         -4.4311202894        2.6213581106        1.0520160222
 C         -5.9308111978        2.4727787173        0.7603309571
 C         -6.3091618935        2.4725606421       -0.7213202989
 H         -7.3938758917        2.5845266796       -0.7743443318
 H         -5.8678471914        3.3431272878       -1.2075528861
 C         -5.9071302725        1.1988347565       -1.4779342450
 H         -5.6931069575        0.4019835274       -0.7620220485
 H         -6.7444467052        0.8609907120       -2.0925537853
 C         -4.7033828591        1.3656476240       -2.4055763627
 H         -4.9516239434        2.0645314924       -3.2073630585
 H         -4.4828641507        0.3963690086       -2.8596930360
 C         -3.4306592424        1.8597699923       -1.7052563816
 H         -2.5880521022        1.7353800765       -2.3903859157
 H         -3.5233221556        2.9169569921       -1.4564123453
 H         -6.4399323948        3.3100174904        1.2432310625
 H         -6.2875529605        1.5522395991        1.2279357503
 H         -4.0340123791        3.4750768114        0.5018092017
 H         -4.3048823215        2.8080644246        2.1207740307
 O         -3.4019777189        0.6432467032        1.8464347778
 C         -2.6994210037       -0.5497588997        1.7755108965
 O         -2.5841305956       -1.1431082409        2.8681992453
 O         -1.8396618496       -0.4731278515       -1.7416216585
 C         -1.4168640748       -2.2584860735        0.4870566933
 C          0.0091751002       -1.9827506856        0.0744426635
 C          0.6570358792       -2.6487889431       -0.9566366306
 C          1.9612239885       -2.3233367325       -1.2887207503
 C          2.6481302516       -1.3420259876       -0.5985151307
 C          2.0116659542       -0.6742456167        0.4400690622
 C          0.7057077797       -1.0006704954        0.7688103822
 H          0.2075166616       -0.4762063829        1.5761699644
 N          2.7071114341        0.3130426728        1.1627300653
 S          3.4424904341        1.5487943383        0.2926523441
 O          3.5308939774        2.6581638605        1.2179415153
 O          2.7581486604        1.8042070761       -0.9537235344
 C          5.0808988227        0.9262338294       -0.0217894545
 C          5.5522630339        0.8514335165       -1.3178020745
 C          6.8334206596        0.3693781451       -1.5376994309
 C          7.6158557279       -0.0261191874       -0.4636244278
 C          7.1282564187        0.0578049559        0.8322404575
 C          5.8491755840        0.5400397459        1.0591636683
 H          5.4337389613        0.6254028653        2.0493817693
 H          7.7396261624       -0.2505843928        1.6649189084
 H          8.6115684603       -0.4023607355       -0.6375329811
 H          7.2139446858        0.3036505875       -2.5443400089
 H          4.9048101189        1.1646885595       -2.1214269115
 H          2.1733977006        0.6980288991        1.9291008170
 H          3.6618421108       -1.0840399890       -0.8577370875
 H          2.4500508387       -2.8427522821       -2.0987216975
 H          0.1381124546       -3.4143083326       -1.5092400075
 H         -1.4025092240       -2.6458303102        1.5164050728
 C         -2.1286077363       -3.2569847701       -0.4008873011
 C         -1.9640923094       -4.7270097173       -0.1626765733
 C         -3.2605699267       -4.0540879020        0.1715857987
 H         -4.1209023929       -4.2486590588       -0.4510638312
 H         -3.5033106420       -3.8938242158        1.2123293791
 H         -1.9370023641       -5.3882001945       -1.0155001942
 H         -1.3276336374       -5.0323782346        0.6539080270
 H         -2.2291715922       -2.9087638949       -1.4222438056
