  62
        -98.94473965
 C         -0.3812779674       -1.7832618008       -0.9603031978
 C         -1.4978058228       -2.2018003649       -0.1934927177
 C         -2.7318476690       -1.4223205415       -0.3466125344
 C         -2.7417010021       -0.3711780966       -1.1851382896
 C         -3.9310834741        0.5074281673       -1.4480997403
 C         -3.9648887364        1.7300478966       -0.5218460292
 C         -3.7348370285        1.4006574373        0.9532391991
 H         -2.7112021039        1.0431012918        1.0952504572
 H         -3.8168471624        2.3372022829        1.5111752356
 C         -4.7202324974        0.3766642526        1.5340556712
 H         -5.0444861855        0.7276602359        2.5161690925
 H         -5.6073284494        0.3156360535        0.9016668099
 C         -4.1412887176       -1.0254601700        1.7340050540
 H         -3.1852519349       -0.9506067898        2.2598070654
 H         -4.8263625993       -1.5876434531        2.3748399409
 C         -3.9266554832       -1.8485168850        0.4572834037
 H         -4.8336966929       -1.8289686707       -0.1510190069
 H         -3.7336650549       -2.8833927573        0.7552124364
 H         -3.1911972617        2.4331342155       -0.8393247828
 H         -4.9330717581        2.2220063659       -0.6373535527
 H         -4.8377502469       -0.0806471434       -1.3169575409
 H         -3.8794071451        0.8496522140       -2.4834255857
 O         -1.6505776794        0.0167863426       -1.8883155446
 C         -0.4323293212       -0.6494440752       -1.7725062419
 O          0.4766249729       -0.1349919935       -2.4463425372
 O         -1.4647483867       -3.2039943271        0.5725836416
 C          0.9001050548       -2.5764854653       -0.7670360311
 C          1.6187842115       -2.0809157278        0.4627955330
 C          2.1740663326       -2.9576069678        1.3871853835
 C          2.7935931700       -2.4749154565        2.5268384901
 C          2.8419518073       -1.1158425765        2.7815128452
 C          2.2848543017       -0.2323778415        1.8643087094
 C          1.7081330019       -0.7176187999        0.7014074922
 H          1.2911045232       -0.0243571095       -0.0122617742
 N          2.2869217922        1.1536191818        2.0806952982
 S          0.9300812107        2.0266871671        1.6189586699
 O          0.9748333008        3.2194605936        2.4419000256
 O         -0.2740229055        1.2360963897        1.7300690430
 C          1.2289906400        2.4949801416       -0.0698135455
 C          2.5209915750        2.7208078161       -0.4994940057
 C          2.7262142607        3.1201667869       -1.8098430757
 C          1.6446713516        3.2927786771       -2.6594924460
 C          0.3537037371        3.0696595923       -2.2097329519
 C          0.1423309127        2.6685992942       -0.9014006183
 H         -0.8436878019        2.4616805033       -0.5150297744
 H         -0.4874235496        3.1899455537       -2.8735008368
 H          1.8078387800        3.5947188799       -3.6820196313
 H          3.7296368901        3.2884539215       -2.1669176400
 H          3.3389908797        2.5676459219        0.1848586079
 H          2.6378125432        1.4495836535        2.9802102149
 H          3.2958776972       -0.7403681963        3.6859230314
 H          3.2226330324       -3.1648761284        3.2375050701
 H          2.0979474100       -4.0220503800        1.2207038175
 H          0.5728217354       -3.6083999896       -0.5589475706
 C          1.7939945856       -2.6181226483       -1.9966328618
 C          3.0532553866       -1.8192324590       -2.1180853242
 C          3.1269971100       -3.3041633536       -1.9389833023
 H          3.4284416161       -3.9132748874       -2.7775597824
 H          3.4572109472       -3.6748910015       -0.9806329182
 H          3.2832499543       -1.3937412968       -3.0822927231
 H          3.3336910215       -1.1888512519       -1.2887696046
 H          1.2187078112       -2.7476011897       -2.9072938077
