  62
        -98.93718717
 C         -1.0872966941       -1.0817495947       -0.7009086143
 C         -2.1608337943       -1.3124291096        0.1937930330
 C         -2.9900483475       -0.1531358477        0.5584689295
 C         -2.6714351514        1.0577878243        0.0718222177
 C         -3.3260486789        2.3879291238        0.3528866334
 C         -4.8593232201        2.4298051564        0.3973847184
 C         -5.5614986533        1.4602854281       -0.5646127578
 H         -6.2995225090        2.0127565002       -1.1489502852
 H         -4.8378375939        1.0399032324       -1.2648937665
 C         -6.2892378468        0.3246195547        0.1584320436
 H         -6.8127206129        0.7385488106        1.0229721519
 H         -7.0442695297       -0.0922805278       -0.5123517046
 C         -5.4038528237       -0.8332042587        0.6179065761
 H         -6.0192359910       -1.5115835695        1.2137144490
 H         -5.0520717817       -1.3982013918       -0.2495068404
 C         -4.1691907691       -0.4366881294        1.4442378819
 H         -4.3866402168        0.3997488487        2.1045807655
 H         -3.8834579506       -1.2959702461        2.0574003666
 H         -5.1994665610        2.2322315529        1.4129555478
 H         -5.1532480940        3.4542262521        0.1620341056
 H         -2.9271242827        2.7640211828        1.3002229464
 H         -2.9658087025        3.0543727423       -0.4348469772
 O         -1.6199535869        1.2431985180       -0.7713635777
 C         -0.8003138190        0.1965376174       -1.1791189621
 O          0.1056731252        0.5509988575       -1.9534605285
 O         -2.4168491694       -2.4513302875        0.6724713300
 C         -0.2126328723       -2.2771554070       -1.0367841282
 C          0.8817979919       -2.4052020606       -0.0072605770
 C          1.1719997651       -3.6224639512        0.5970444259
 C          2.1543505307       -3.7063714357        1.5685398747
 C          2.8461928765       -2.5781887544        1.9713382038
 C          2.5614920773       -1.3558053228        1.3727231953
 C          1.6038223300       -1.2831703524        0.3736976143
 H          1.3959546462       -0.3326084126       -0.0903779993
 N          3.2346676539       -0.1847082724        1.7464036409
 S          2.4238661241        1.2815363216        1.7149991454
 O          3.1894198583        2.1247837713        2.6127194540
 O          1.0249897032        1.1302004764        2.0475669336
 C          2.6307872566        1.8933866241        0.0583582422
 C          1.6570693583        2.7164387630       -0.4680128888
 C          1.8362718221        3.2404002725       -1.7375975999
 C          2.9805244189        2.9322133749       -2.4544894987
 C          3.9509508733        2.1050064994       -1.9105295832
 C          3.7802538351        1.5816299265       -0.6397137085
 H          4.5109327641        0.9307829199       -0.1886241732
 H          4.8370808603        1.8622296867       -2.4748972002
 H          3.1127197414        3.3347288118       -3.4464977198
 H          1.0749448391        3.8735355691       -2.1640094267
 H          0.7693481300        2.9131750699        0.1130919577
 H          3.8433709972       -0.2676712015        2.5475116825
 H          3.5940705203       -2.6382832921        2.7471174172
 H          2.3709671125       -4.6569739373        2.0317236447
 H          0.6084357655       -4.5003763530        0.3174209790
 H         -0.8704698522       -3.1544790461       -0.9270799086
 C          0.3121278986       -2.2745945583       -2.4645301876
 C          1.7307614229       -1.9579947526       -2.8195374377
 C          1.2315662605       -3.3656559211       -2.9286947746
 H          1.0775928739       -3.7875668079       -3.9101983975
 H          1.5740010421       -4.0745156436       -2.1900573202
 H          1.9033179831       -1.3909082920       -3.7209369707
 H          2.4125965843       -1.7155406575       -2.0197337890
 H         -0.4431929631       -1.9407735943       -3.1686102304
