  62
        -98.93909331
 C          1.8994164520       -0.3129041161        0.6325803764
 C          2.9517996379       -1.1986051936        0.3064477886
 C          4.3099212781       -0.6289790870        0.2746232921
 C          4.4820559017        0.6795656211        0.5402797766
 C          5.7377761805        1.5227118258        0.6217863750
 C          7.0649493526        1.0053682596        0.0729252362
 C          7.1122012037        0.8522811885       -1.4469946942
 H          7.0937259547        1.8482147084       -1.8967946899
 H          8.0625181085        0.3847371182       -1.7138095476
 C          5.9713909873        0.0472997420       -2.0642749648
 H          5.0233645403        0.5592303783       -1.8863379234
 H          6.1261962954        0.0243812277       -3.1464441221
 C          5.8549950217       -1.3969021609       -1.5810118880
 H          6.8095302964       -1.9085248819       -1.7183814291
 H          5.1144420799       -1.8961597490       -2.2115465064
 C          5.4104585382       -1.5722433563       -0.1184998427
 H          6.2522853763       -1.4857308481        0.5641856084
 H          5.0020957843       -2.5811321420       -0.0090274796
 H          7.3357611914        0.0727627265        0.5589809984
 H          7.8245291502        1.7400778833        0.3538347227
 H          5.4917964189        2.4694579813        0.1303209810
 H          5.8696432704        1.7543354589        1.6845878173
 O          3.4319874563        1.4962095201        0.8506891384
 C          2.1262681004        1.0352015222        0.9010192696
 O          1.2859742188        1.9080844254        1.1892336279
 O          2.7670243882       -2.4197289155        0.0546344648
 C          0.4790640797       -0.8477584071        0.6845643938
 C         -0.3762755908       -0.1081618292       -0.3131902086
 C          0.0097004972       -0.1192439259       -1.6523734960
 C         -0.7164583401        0.5684528862       -2.6036867838
 C         -1.8517505358        1.2739320936       -2.2426443697
 C         -2.2488168933        1.2885663950       -0.9118505546
 C         -1.5160012803        0.5939318800        0.0430370365
 H         -1.8385442639        0.6407061743        1.0690090760
 N         -3.3856948585        2.0129345811       -0.5188456208
 S         -4.5100494436        1.3433940482        0.5194588945
 O         -5.6702671578        2.1977131333        0.3941103371
 O         -3.9595238398        1.2055594220        1.8428598462
 C         -4.8577728122       -0.2582489882       -0.1832392091
 C         -4.1810545080       -1.3690387115        0.2775684406
 C         -4.4120411495       -2.5924977785       -0.3317702860
 C         -5.3089305675       -2.6834083096       -1.3847448481
 C         -5.9846250718       -1.5582994423       -1.8329563794
 C         -5.7550708642       -0.3320130278       -1.2311839609
 H         -6.2664609917        0.5647135798       -1.5416597224
 H         -6.6858255544       -1.6334330923       -2.6484038992
 H         -5.4840659370       -3.6376653006       -1.8559986572
 H         -3.8892857049       -3.4686622621        0.0174783091
 H         -3.4945483919       -1.2607138881        1.1006678789
 H         -3.8450238425        2.5051222126       -1.2710602099
 H         -2.4173348640        1.8199264031       -2.9823989943
 H         -0.4000309890        0.5555821300       -3.6357405122
 H          0.8989005159       -0.6677262073       -1.9320695456
 H          0.5537871399       -1.8973199894        0.3639468457
 C         -0.0509979995       -0.8097106136        2.1013971077
 C         -1.0868138801       -1.7984840357        2.5427647825
 C          0.3202623424       -1.9118480210        3.0460662110
 H          0.5250606743       -1.6602653818        4.0758774202
 H          0.9387678214       -2.7087199122        2.6595728614
 H         -1.8551970868       -1.4688778412        3.2267746293
 H         -1.4170343179       -2.5283356530        1.8187961756
 H         -0.0976127622        0.1948216600        2.5076985047
