  62
        -98.93853204
 C         -1.3429327443       -1.5118101965        0.4793942143
 C         -1.4936170576       -0.4655590136       -0.4624831128
 C         -2.3916603563        0.6286476525       -0.0616145538
 C         -2.9326435882        0.6310009127        1.1695735967
 C         -3.8206902294        1.6941324168        1.7607455619
 C         -5.2063820922        1.8615344381        1.1073431914
 C         -5.2654274517        2.9384116437        0.0168784070
 H         -6.2090475111        3.4798475062        0.1104380235
 H         -4.4707768233        3.6636623392        0.1962489827
 C         -5.1821835017        2.4327645888       -1.4266315611
 H         -6.1518811126        2.0211954702       -1.7158331772
 H         -4.9859984741        3.2927999406       -2.0704988950
 C         -4.1290705096        1.3583005275       -1.6992605031
 H         -4.4740468262        0.3987744803       -1.3067672294
 H         -4.0414192531        1.2351423771       -2.7804283734
 C         -2.7393011198        1.6533647867       -1.1014742178
 H         -1.9752181218        1.5744517072       -1.8764016740
 H         -2.7115598310        2.6577683957       -0.6824053675
 H         -5.8981358646        2.1442896160        1.9025539191
 H         -5.5418918508        0.9017528788        0.7152001362
 H         -3.9532274619        1.4133008061        2.8076786105
 H         -3.2921199619        2.6497979074        1.7368151158
 O         -2.6892270538       -0.3556787185        2.0772681690
 C         -1.9204778228       -1.4598574259        1.7468050870
 O         -1.8123876542       -2.3043505783        2.6606099535
 H          1.0004714965       -1.1563476133        1.6437424693
 C          1.5442827020       -1.4668076668        0.7593684772
 C          0.9177454067       -2.3021363167       -0.1579246293
 C          1.6266428246       -2.6974210907       -1.2838863277
 C          2.9232510547       -2.2554642805       -1.4870601750
 C          3.5405970983       -1.4196403830       -0.5754568783
 C          2.8416727588       -1.0246574178        0.5584506525
 N          3.4584489121       -0.1681888294        1.4931648403
 S          4.0648960880        1.2755772407        0.8952443711
 O          5.3062903796        1.0193462821        0.2097653728
 O          4.1416198575        2.1581633166        2.0379053386
 C          2.8336105907        1.8504928540       -0.2575664151
 C          1.6707923338        2.3906921063        0.2541022266
 C          0.6808354260        2.8019756818       -0.6217054118
 C          0.8642187861        2.6548722526       -1.9875532522
 C          2.0340406711        2.1042366949       -2.4851672410
 C          3.0313081983        1.6964993113       -1.6141720974
 H          3.9579377643        1.2699556983       -1.9611262672
 H          2.1695921923        1.9865915258       -3.5480907529
 H          0.0889790883        2.9710998465       -2.6673177282
 H         -0.2319944052        3.2265909654       -0.2364349964
 H          1.5644383149        2.4938002046        1.3227759655
 H          2.8848977898        0.0109171103        2.3050255443
 H          4.5478226942       -1.0639334769       -0.7199038829
 H          3.4605530863       -2.5668099594       -2.3697513687
 H          1.1629136836       -3.3462431778       -2.0081335133
 C         -0.5013205638       -2.7267540802        0.1311874223
 H         -0.4890200204       -3.3570477534        1.0326016503
 C         -1.1474954517       -3.5019968769       -0.9977533204
 C         -0.9331564418       -4.9800264138       -1.1168113270
 C         -2.2635346103       -4.4485449269       -0.6772002568
 H         -3.0979247545       -4.5134955495       -1.3593490894
 H         -2.5413652447       -4.5546534181        0.3617482787
 H         -0.8572913487       -5.4136616125       -2.1024760784
 H         -0.3089920442       -5.4564911736       -0.3759771452
 H         -1.2324065263       -2.9198097646       -1.9078171941
 O         -0.9143533613       -0.4426224239       -1.5772390763
