  62
        -98.93762207
 C         -2.6486318150       -1.1102959160        0.2009625743
 C         -2.7192972506       -0.2377148155       -0.9108406442
 C         -3.5074015200        0.9923877166       -0.7212366533
 C         -4.1097593186        1.2175086896        0.4588818908
 C         -4.9826436074        2.3820046603        0.8544135353
 C         -4.5072873933        3.7868520694        0.4547455332
 C         -2.9832862801        3.9695855769        0.3995492601
 H         -2.7123625902        4.8572929325        0.9744415547
 H         -2.4856133488        3.1171981632        0.8659197695
 C         -2.4543529765        4.1543358521       -1.0252073036
 H         -1.4744897256        4.6352913126       -0.9757574692
 H         -3.1238826140        4.8315215974       -1.5599583408
 C         -2.2879365021        2.8708323548       -1.8383519498
 H         -1.4502078216        2.2870557400       -1.4463135431
 H         -2.0284600197        3.1527199534       -2.8614402227
 C         -3.5174576961        1.9487004965       -1.8786538613
 H         -4.4401996854        2.5221373481       -1.9203277262
 H         -3.4454897618        1.3334724691       -2.7794520013
 H         -4.9293956528        4.0518969124       -0.5136219445
 H         -4.9300758011        4.4815749524        1.1823699734
 H         -5.9826369243        2.2127903459        0.4450596231
 H         -5.0652169531        2.3185157387        1.9420885996
 O         -4.0177661457        0.3442727114        1.5031268514
 C         -3.2788563920       -0.8231942576        1.4090591842
 O         -3.2552899336       -1.5046689807        2.4555256139
 H         -0.3493459392       -0.4301090323        1.1433703938
 C          0.2164558257       -0.9937472090        0.4100330350
 C         -0.3974469845       -2.0545324846       -0.2448452605
 C          0.3471292854       -2.7802227182       -1.1651415680
 C          1.6596943129       -2.4324240594       -1.4349665441
 C          2.2570877599       -1.3600857566       -0.7991929642
 C          1.5270179478       -0.6361422148        0.1346383188
 N          2.1187211595        0.4651577816        0.7789203409
 S          3.6138474234        0.2436731682        1.5117139533
 O          3.7849021600       -1.1181675960        1.9628670733
 O          3.6914889631        1.2711891743        2.5273012440
 C          4.7820324843        0.6130929331        0.2204560033
 C          5.7690550066       -0.2991875039       -0.0973577832
 C          6.6734238038        0.0150416430       -1.1000237668
 C          6.5752504254        1.2291315640       -1.7623417361
 C          5.5792874567        2.1353093157       -1.4292264839
 C          4.6729825758        1.8281911306       -0.4270620137
 H          3.8861249122        2.5044289384       -0.1368334889
 H          5.5054439686        3.0780764950       -1.9470466829
 H          7.2787931894        1.4710708358       -2.5432256727
 H          7.4482983492       -0.6878440309       -1.3606091939
 H          5.8015395881       -1.2334378580        0.4401165802
 H          1.4917579971        0.9545397883        1.4009834271
 H          3.2751901181       -1.0804197910       -1.0151883865
 H          2.2240809365       -3.0019360722       -2.1573917992
 H         -0.1018378723       -3.6162780963       -1.6755183975
 C         -1.8292789891       -2.3835774329        0.1065160855
 H         -1.8374912195       -2.8278550714        1.1134241875
 C         -2.4797272354       -3.3530069442       -0.8588388003
 C         -2.3401846133       -4.8312322174       -0.6577268606
 C         -3.6520849977       -4.1588649330       -0.3892617360
 H         -4.4701578552       -4.3273891306       -1.0732796002
 H         -3.9622839171       -4.0281579963        0.6376707065
 H         -1.7625087684       -5.1691924267        0.1895108798
 H         -2.2610264963       -5.4651910783       -1.5279921407
 H         -2.5077075070       -2.9715706498       -1.8729408564
 O         -2.1553737227       -0.4715355699       -2.0100737944
