  62
        -98.93992722
 C         -1.6042277277       -1.2697716979        0.2433376727
 C         -1.6625854950        0.0773539007        0.6863336367
 C         -2.6853565520        0.9257578006        0.0632727645
 C         -3.4634140892        0.4076576093       -0.9042477698
 C         -4.5783980816        1.1391008585       -1.5929290751
 C         -5.9148190632        0.9255759469       -0.8683486774
 C         -5.8447206588        1.1644284141        0.6399688520
 H         -6.8500077215        1.0149422629        1.0399887721
 H         -5.2034075703        0.4041278731        1.0917189188
 C         -5.3370309894        2.5569864535        1.0392860031
 H         -5.4141570240        3.2368022580        0.1900347837
 H         -5.9808427220        2.9510544216        1.8285143582
 C         -3.9056804223        2.5788193285        1.5788399312
 H         -3.7288372321        3.5587739388        2.0301665057
 H         -3.8018431521        1.8314228728        2.3694168684
 C         -2.7975363713        2.3449106168        0.5441294756
 H         -1.8418620873        2.5695468959        1.0253580796
 H         -2.9342840846        3.0270382294       -0.2973638519
 H         -6.6576321612        1.5924725289       -1.3099654403
 H         -6.2401875245       -0.1036275756       -1.0371606906
 H         -4.6633956159        0.7567739938       -2.6115000618
 H         -4.3407775889        2.2003436533       -1.6320588977
 O         -3.3463305682       -0.8712361514       -1.3382679977
 C         -2.4165118410       -1.7460352324       -0.7862211770
 O         -2.4323656230       -2.8791023520       -1.2996920007
 O         -0.8958152114        0.5410899569        1.5717067682
 C         -0.5521696135       -2.1437723223        0.9051742031
 C          0.7492328233       -1.9453530059        0.1727272691
 C          0.8638589187       -2.2455865669       -1.1817036154
 C          2.0461804581       -2.0003477419       -1.8552794971
 C          3.1282624494       -1.4355899124       -1.2008913217
 C          3.0150117333       -1.1137421829        0.1442667863
 C          1.8339196820       -1.3796628882        0.8246763707
 H          1.7467094185       -1.1147115720        1.8693809970
 N          4.0986301449       -0.4976055704        0.8044931749
 S          4.6076172200        0.9648834696        0.1580505644
 O          5.3278720143        0.7139872671       -1.0642460277
 O          5.3512855567        1.6119881572        1.2146582953
 C          3.1004806517        1.8531611357       -0.1859833871
 C          2.5718803115        1.8306183850       -1.4604418987
 C          1.3616819076        2.4638425585       -1.6922337105
 C          0.7056697461        3.1037421124       -0.6526127766
 C          1.2505520062        3.1184286892        0.6215722324
 C          2.4568791904        2.4822482196        0.8607847464
 H          2.9129403397        2.4757644927        1.8379308749
 H          0.7351399038        3.6123555074        1.4294482601
 H         -0.2379874264        3.5926523732       -0.8361375898
 H          0.9311772876        2.4518383188       -2.6808627069
 H          3.1148078015        1.3276565339       -2.2436745770
 H          3.9431449818       -0.3870506527        1.7970022087
 H          4.0510775851       -1.2221083251       -1.7156851040
 H          2.1255013441       -2.2447253831       -2.9038344483
 H          0.0112796236       -2.6629051197       -1.6970054747
 H         -0.4288400196       -1.7170678644        1.9130945422
 C         -0.9618284862       -3.5986964769        1.0736062652
 C         -0.2257402967       -4.7460398797        0.4548038611
 C         -0.1249392059       -4.5045229063        1.9288523781
 H         -0.6191797248       -5.1854910284        2.6050631864
 H          0.8067061934       -4.1075825336        2.3043787819
 H         -0.8115849534       -5.5814223904        0.1027159342
 H          0.6399772799       -4.5359884480       -0.1531990862
 H         -2.0368604746       -3.7146180843        1.1562336790
