  62
        -98.95134656
 C         -2.3398973704       -0.0189198178        0.1112981580
 C         -1.5935139792        0.5236387203       -0.9612002120
 C         -1.3825893678        1.9756018301       -0.9245802934
 C         -1.8094802579        2.6827554817        0.1373530555
 C         -1.6723455665        4.1690914018        0.3271283640
 C         -0.2993814465        4.6030856410        0.8580673145
 C          0.8333313142        4.5725326288       -0.1684782047
 H          0.5207234753        5.1024202881       -1.0694258555
 H          1.6695756844        5.1258679885        0.2636737653
 C          1.3183380331        3.1638839679       -0.5382190828
 H          2.4117294131        3.1490457969       -0.5512574420
 H          1.0070575319        2.4523131091        0.2305491177
 C          0.8464373936        2.6667047269       -1.9037676226
 H          1.2362146227        1.6569311564       -2.0449022212
 H          1.2646798147        3.3029690057       -2.6876059330
 C         -0.6766262864        2.6226367082       -2.0798216036
 H         -1.0629518453        3.6313766384       -2.2291715550
 H         -0.8971436763        2.0292545975       -2.9709780131
 H         -0.4005724758        5.6267807015        1.2268647733
 H         -0.0347799677        3.9665816217        1.7063365054
 H         -1.8791328154        4.6818327609       -0.6130633067
 H         -2.4321333168        4.4591569433        1.0562405232
 O         -2.4578456191        2.1113233634        1.1870788757
 C         -2.7428125905        0.7568871037        1.1972242569
 O         -3.3578661015        0.3666516454        2.2126085469
 H         -0.5541100225       -0.9886713079        1.6858454703
 C         -0.3735429729       -1.8542486187        1.0652914214
 C         -1.3622882627       -2.2908031487        0.1930767812
 C         -1.1118063532       -3.4160168998       -0.5821758574
 C          0.1085883961       -4.0651147409       -0.4993496859
 C          1.1093122059       -3.5940465209        0.3313841043
 C          0.8646374865       -2.4727713898        1.1159019229
 N          1.8568592864       -1.9235368299        1.9550026730
 S          2.3384291582       -0.3511328707        1.6229835417
 O          3.4198699578       -0.0877955908        2.5479201622
 O          1.2082299790        0.5377030104        1.6961529899
 C          2.9914524593       -0.4379132631       -0.0353608578
 C          2.1276916498       -0.6076579934       -1.0992196582
 C          2.6590793606       -0.7626335853       -2.3712301176
 C          4.0318194607       -0.7403429369       -2.5593404267
 C          4.8855073301       -0.5643818365       -1.4803982563
 C          4.3628589494       -0.4198104046       -0.2058118468
 H          4.9859614089       -0.2860377443        0.6637251335
 H          5.9533166903       -0.5436058777       -1.6275115856
 H          4.4365406313       -0.8596182383       -3.5519076863
 H          1.9841965010       -0.8962239856       -3.2018290180
 H          1.0606794697       -0.6100332322       -0.9404899689
 H          2.6776595358       -2.5063713706        2.0503144242
 H          2.0704737854       -4.0837852018        0.3730403855
 H          0.2897750357       -4.9388512417       -1.1063266248
 H         -1.8697969131       -3.7813579198       -1.2554251676
 C         -2.6509139319       -1.5057044575        0.1494109994
 H         -3.1848147327       -1.6777945260        1.0959437692
 C         -3.5565129015       -1.8883972378       -1.0023454008
 C         -4.5152160127       -3.0313192868       -0.8613700902
 C         -5.0260754113       -1.6228480863       -0.8830695021
 H         -5.5610240504       -1.2785264167       -1.7552831629
 H         -5.3767629615       -1.1890405250        0.0425246572
 H         -4.7047931627       -3.6553431475       -1.7216371197
 H         -4.5298119338       -3.5591415757        0.0802848903
 H         -3.0952592606       -1.7200773093       -1.9684032807
 O         -1.1368625192       -0.1664967412       -1.9105982709
