  62
        -98.93588412
 C         -1.7306588397       -1.0756790909       -0.9380874389
 C         -1.6620096499        0.2683731797       -0.4927538106
 C         -2.9564861700        0.9577339998       -0.3501868219
 C         -4.0920969299        0.3199867893       -0.6827238313
 C         -5.4734452699        0.8886511293       -0.5382144324
 C         -6.0773686702        0.5348302011        0.8280399979
 C         -5.1477677605        0.8231197027        2.0070645178
 H         -4.2821439405        0.1589151627        1.9497669889
 H         -5.6902656307        0.5642940438        2.9190782880
 C         -4.6649679007        2.2777290928        2.0944230260
 H         -4.7460618810        2.6105369642        3.1314298756
 H         -5.3140612406        2.9192413420        1.4972659750
 C         -3.2105529006        2.4914009824        1.6700171761
 H         -2.5671428907        1.7836468531        2.1991291772
 H         -2.9131645507        3.4975447928        1.9770642548
 C         -2.9283143102        2.3684636605        0.1672482763
 H         -1.9121229902        2.7310482103       -0.0112251439
 H         -3.6231128401        2.9990409597       -0.3908007247
 H         -6.3179083102       -0.5309065489        0.8348175493
 H         -7.0074011903        1.0931431112        0.9501175870
 H         -6.1030392397        0.4673336383       -1.3237663120
 H         -5.4315592200        1.9691429592       -0.6600038238
 O         -4.1130368797       -0.9551382513       -1.1494925496
 C         -2.9446687096       -1.6865845714       -1.2626922084
 O         -3.1125706294       -2.8570828919       -1.6639187769
 O         -0.5970744600        0.8763340701       -0.2219633312
 C         -0.4892826296       -1.9523271310       -1.0794402775
 C          0.2639058701       -1.9511285292        0.2263082427
 C         -0.1919636601       -2.8224066480        1.2167535837
 C          0.3911461796       -2.8544979063        2.4679382839
 C          1.4659294895       -2.0324640758        2.7597211731
 C          1.9278374097       -1.1592117471        1.7852655721
 C          1.3200943500       -1.1106974887        0.5371385119
 H          1.6768111801       -0.3832388896       -0.1668680890
 N          3.0074019395       -0.2987856367        2.0354902312
 S          4.1549876698       -0.0790796281        0.8382641112
 O          4.3138509401       -1.2735718992        0.0401286928
 O          5.3383805796        0.3677076629        1.5445396309
 C          3.5511685599        1.2588094505       -0.1670054507
 C          3.7974164903        1.2316615888       -1.5252527206
 C          3.3651789004        2.2917139977       -2.3059141121
 C          2.6982314902        3.3542580184       -1.7170452236
 C          2.4607169598        3.3662467102       -0.3511332137
 C          2.8935930297        2.3119609713        0.4360115278
 H          2.7167246695        2.2857854926        1.4982330978
 H          1.9346321397        4.1908979107        0.1022167551
 H          2.3564221802        4.1756528176       -2.3270853648
 H          3.5439579906        2.2798293663       -3.3690499720
 H          4.3032448804        0.3775596183       -1.9462146494
 H          3.4274498493       -0.3895897854        2.9487874514
 H          1.9356852693       -2.0616400945        3.7313756233
 H          0.0150400895       -3.5325647853        3.2193003847
 H         -1.0275739200       -3.4722027083        0.9931589944
 H         -0.8888711095       -2.9713188712       -1.2013871962
 C          0.2364928807       -1.6560927726       -2.3861965677
 C          0.9518714907       -0.3808934730       -2.7120143192
 C          1.7239812907       -1.6596150728       -2.5758215273
 H          2.1088880610       -2.1127068339       -3.4781872066
 H          2.3642331905       -1.7998529116       -1.7183081770
 H          0.8149027309        0.0284975057       -3.7030554797
 H          1.0216427004        0.3748781180       -1.9469788301
 H         -0.3390557591       -2.0753891137       -3.2089783473
