  62
        -98.93592644
 C         -2.5016521312       -0.9181037367        0.4010397416
 C         -2.9782482032        0.1331601792        1.2261540032
 C         -3.8348122206        1.1310394628        0.5768738447
 C         -4.1012755396        1.0247849360       -0.7373609488
 C         -4.9893037020        1.9379139120       -1.5385288383
 C         -4.2922416318        3.2098376515       -2.0400763882
 C         -3.9947649415        4.2548606677       -0.9641206832
 H         -4.9058196704        4.4667789119       -0.4036242395
 H         -3.7087547739        5.1734976262       -1.4801509531
 C         -2.8707751810        3.8620628434        0.0048568127
 H         -2.1897639236        4.7062825370        0.1338372400
 H         -2.2885141311        3.0441024735       -0.4262186798
 C         -3.3495171858        3.4494716656        1.3969052368
 H         -3.8204917275        4.3025723094        1.8902110944
 H         -2.4773052543        3.1583254126        1.9877651595
 C         -4.3379597965        2.2759605056        1.4035594567
 H         -5.3132892516        2.6036710733        1.0441698993
 H         -4.4438979945        1.9227978504        2.4323080565
 H         -4.9453041750        3.6650026103       -2.7882472779
 H         -3.3632652337        2.9248943175       -2.5394447602
 H         -5.8631830595        2.2100728859       -0.9456977908
 H         -5.3222880850        1.3635562785       -2.4057388165
 O         -3.5887845242        0.0290444865       -1.5056790056
 C         -2.7624931333       -0.9541994194       -0.9702371012
 O         -2.3502261783       -1.7706924858       -1.8131267971
 O         -2.7018356482        0.2311810536        2.4518448846
 C         -1.6301995737       -1.9766275603        1.0535164698
 C         -0.3671360940       -2.1866338117        0.2574045953
 C         -0.0962482223       -3.3490148189       -0.4512284150
 C          1.0793029324       -3.4701854100       -1.1712864929
 C          2.0067907536       -2.4454868395       -1.1967223173
 C          1.7499786667       -1.2805098577       -0.4851051847
 C          0.5721916259       -1.1625255255        0.2382803237
 H          0.3673512674       -0.2532662633        0.7907774736
 N          2.6841102731       -0.2268036819       -0.5122187983
 S          4.3127254692       -0.6515054442       -0.3468535909
 O          4.8142018728       -1.0501877297       -1.6381090521
 O          4.4664356368       -1.6196092254        0.7159216588
 C          5.0355808498        0.9076595098        0.1235420641
 C          5.2567276487        1.1729692080        1.4616841978
 C          5.8038056202        2.3946847470        1.8211616620
 C          6.1153129400        3.3261649239        0.8421133523
 C          5.8868843492        3.0453953965       -0.4969371640
 C          5.3418437883        1.8251787887       -0.8635771057
 H          5.1569472720        1.5592869116       -1.8912566180
 H          6.1331290112        3.7712600073       -1.2550208463
 H          6.5419408487        4.2756535850        1.1245921846
 H          5.9853239487        2.6142793434        2.8609768596
 H          5.0080700439        0.4155676106        2.1878597705
 H          2.4374271733        0.5147213747        0.1292487353
 H          2.9268392588       -2.5322873299       -1.7521875350
 H          1.2755351770       -4.3760544445       -1.7252211846
 H         -0.8170936016       -4.1498310737       -0.4595068043
 H         -1.3466421568       -1.5318822846        2.0222599926
 C         -2.3550867975       -3.2744374602        1.3770756862
 C         -3.8013024517       -3.2660334838        1.7704240927
 C         -3.3814273708       -3.8845640010        0.4724324213
 H         -3.4088898654       -4.9611821713        0.3866854017
 H         -3.6139790372       -3.3695798625       -0.4461591852
 H         -4.1204355268       -3.9143610679        2.5724784501
 H         -4.3203078386       -2.3189695688        1.7402241029
 H         -1.7140721758       -3.9650666031        1.9171047986
