  62
        -98.93877622
 C          1.8638462106        0.7216236786        0.8613458851
 C          2.1786633244       -0.6620042091        0.8261939523
 C          3.5958085419       -1.0057458982        0.6745406514
 C          4.5127029489       -0.0243347193        0.6026155045
 C          6.0006861946       -0.2082863248        0.4746542863
 C          6.4811940568       -0.4269035226       -0.9664943072
 C          6.1448089839       -1.7938922360       -1.5637272471
 H          6.7240423496       -1.8924938131       -2.4839949212
 H          6.4789159376       -2.5780482763       -0.8836267960
 C          4.6585022863       -1.9931564266       -1.8924274301
 H          4.1570193104       -1.0228183743       -1.9182749151
 H          4.5612302253       -2.4288998682       -2.8893776325
 C          3.9116570928       -2.9090163236       -0.9226055198
 H          2.8628255496       -2.9476305686       -1.2276462536
 H          4.3193825493       -3.9203596489       -0.9861803711
 C          3.9618587503       -2.4530506010        0.5414930809
 H          4.9520151501       -2.6350436584        0.9589041385
 H          3.2294664245       -3.0338549260        1.1072532270
 H          6.0616444819        0.3599218888       -1.5977002273
 H          7.5674932077       -0.3104761021       -0.9687175034
 H          6.4607237396        0.7059449499        0.8559040243
 H          6.3212359954       -1.0442694232        1.0970507597
 O          4.1768851687        1.2899789348        0.6599279152
 C          2.8508877953        1.7033722862        0.7609389343
 O          2.7176523027        2.9400974505        0.7547176731
 O          1.3095297696       -1.5687737011        0.9285021087
 C          0.3944208157        1.0700813064        1.0053793503
 C         -0.2809640493        1.2264294004       -0.3328612616
 C          0.2987456282        1.9543413641       -1.3665984103
 C         -0.3607400213        2.0996592432       -2.5737025471
 C         -1.6149444616        1.5463945773       -2.7642261932
 C         -2.2032667669        0.8179410930       -1.7373947631
 C         -1.5238272117        0.6468378541       -0.5394379492
 H         -1.9739767594        0.0588049337        0.2450142375
 N         -3.4708529845        0.2417972015       -1.8914286445
 S         -4.5437864832        0.2514827160       -0.6041010505
 O         -5.8486153304        0.1385355165       -1.2189436558
 O         -4.3351182006        1.3989868017        0.2465551688
 C         -4.1870405828       -1.2524402357        0.2773974378
 C         -3.9173998174       -1.2087259617        1.6306964889
 C         -3.6528296112       -2.3932249377        2.2999080177
 C         -3.6646178902       -3.5939890352        1.6075033171
 C         -3.9411619185       -3.6212070378        0.2488287279
 C         -4.2064257404       -2.4406668241       -0.4256980499
 H         -4.4282161408       -2.4211548471       -1.4796382268
 H         -3.9481573061       -4.5578286485       -0.2850493549
 H         -3.4555539132       -4.5136270181        2.1308712762
 H         -3.4354043271       -2.3734812993        3.3558737263
 H         -3.9116674662       -0.2526533422        2.1309765236
 H         -3.9278153307        0.4421755281       -2.7689464286
 H         -2.1346967753        1.6764053547       -3.7013722689
 H          0.1000215624        2.6647079024       -3.3702005484
 H          1.2635172662        2.4135048262       -1.2105227982
 H         -0.0534922201        0.1878069380        1.4910510110
 C          0.1354447256        2.2609431814        1.9177151948
 C         -0.2724126003        3.6117582972        1.4212713077
 C         -1.2633898435        2.7543339969        2.1467899276
 H         -1.5510576370        3.0352642398        3.1490049304
 H         -2.0632947036        2.3146957293        1.5676117424
 H          0.1410898525        4.4747887159        1.9203023667
 H         -0.3979680453        3.7475681622        0.3586101054
 H          0.7915408307        2.2511309143        2.7828327299
