  62
        -98.93329306
 C         -1.7347552837       -0.8433597113       -0.4540336291
 C         -3.0626903781       -1.3312734297       -0.5449743977
 C         -4.0806166463       -0.6133040406        0.2365506943
 C         -3.7000861160        0.4156207485        1.0150651997
 C         -4.6224200835        1.2972648871        1.8079469035
 C         -5.3204036771        2.3053832633        0.8727199916
 C         -6.8335134384        2.1183180331        0.7606304951
 H         -7.1781473079        2.7325901515       -0.0740312739
 H         -7.3066642588        2.5002481577        1.6677413629
 C         -7.3147661523        0.6791176075        0.5521279696
 H         -8.3569759253        0.7359594469        0.2307552554
 H         -7.3127440917        0.1491846640        1.5059133719
 C         -6.5287627249       -0.1502566204       -0.4716564901
 H         -6.0339381052        0.4992537603       -1.1941844980
 H         -7.2399716562       -0.7622289301       -1.0302463222
 C         -5.4953666189       -1.1136648399        0.1415689504
 H         -5.4338933615       -2.0065836778       -0.4878948827
 H         -5.8368281320       -1.4334284095        1.1302283367
 H         -4.8689094642        2.2232689845       -0.1182333325
 H         -5.1270703534        3.3205946207        1.2224416679
 H         -5.3564200508        0.6867606606        2.3293876993
 H         -4.0159971632        1.8208116792        2.5473916679
 O         -2.4101744558        0.8244561727        1.1147252594
 C         -1.3921742028        0.2099720401        0.3944688566
 O         -0.2659158723        0.6915292247        0.6072878998
 H          2.0074003597       -0.9601304533       -1.6715350845
 C          1.8258565005       -1.4861095256       -0.7472029726
 C          0.5360988762       -1.8520614577       -0.3959099909
 C          0.3438070569       -2.5182066194        0.8124052102
 C          1.4054144821       -2.7852528428        1.6540490653
 C          2.6916044898       -2.4124657161        1.3023366627
 C          2.8974231523       -1.7615567107        0.0950981769
 N          4.2111487703       -1.4009129254       -0.2736451339
 S          5.0034319347       -0.2233320434        0.6145915771
 O          6.3689222916       -0.2279848639        0.1396244636
 O          4.8132715165       -0.4871774015        2.0173142762
 C          4.2292047502        1.3170458595        0.1517791419
 C          4.9433015014        2.2279936312       -0.6029882853
 C          4.3257799657        3.4038206542       -0.9968707747
 C          3.0061156254        3.6429429694       -0.6421089584
 C          2.3026640537        2.7159965238        0.1109109267
 C          2.9168659124        1.5415776427        0.5162024291
 H          2.3726426379        0.8110342129        1.0926789096
 H          1.2706870214        2.8751139612        0.3805477760
 H          2.5218561405        4.5549610024       -0.9547137921
 H          4.8712593195        4.1267974763       -1.5820237952
 H          5.9644570339        1.9970223345       -0.8606135391
 H          4.3067195377       -1.1877012949       -1.2571414687
 H          3.5297711764       -2.5987018577        1.9533181890
 H          1.2337098413       -3.2920040035        2.5920164254
 H         -0.6596068669       -2.8115587423        1.0914631200
 C         -0.6666174506       -1.5616503793       -1.2588979515
 H         -1.1310427372       -2.5271958924       -1.5217077621
 C         -0.3164036701       -0.8783710070       -2.5733847891
 C         -1.2597893632        0.0866447295       -3.2251689874
 C          0.0297000939        0.5786545296       -2.6431987617
 H          0.8105958608        0.8909497397       -3.3215790346
 H          0.0002893040        1.1396475733       -1.7226507675
 H         -2.1778478951        0.3197075113       -2.7056417308
 H         -1.3635808079        0.0535915201       -4.2994180285
 H          0.2241116818       -1.5401092451       -3.2435735088
 O         -3.3800959163       -2.3297790474       -1.2456140017
