  62
        -98.94251938
 C         -2.1484343903       -0.8837849008        0.1736614204
 C         -2.5047007405        0.1002439990        1.1256629305
 C         -2.8493078310        1.4223802189        0.5878911705
 C         -2.7661946812        1.6336005290       -0.7386546595
 C         -3.1300243816        2.9171664989       -1.4258456194
 C         -4.6059704417        2.9245564884       -1.8484954393
 C         -5.5698257514        2.5190893981       -0.7333319692
 H         -6.5819863615        2.5907328078       -1.1369007191
 H         -5.3980758911        1.4708018281       -0.4788071392
 C         -5.4640526116        3.3726788981        0.5380772808
 H         -6.4711920016        3.6296360078        0.8725918809
 H         -4.9481708619        4.3071893583        0.3148464208
 C         -4.7691071412        2.6781497083        1.7104143508
 H         -5.2240987109        1.6987963882        1.8777614208
 H         -4.9385422013        3.2763880483        2.6095332308
 C         -3.2537852012        2.4869895088        1.5690972506
 H         -2.7835267415        3.4397633190        1.3164157906
 H         -2.8680112110        2.1606147389        2.5395417306
 H         -4.8569222420        3.9256040083       -2.2038299492
 H         -4.7302819515        2.2272332384       -2.6801618893
 H         -2.9280306718        3.7510829689       -0.7561787594
 H         -2.5034604718        3.0182552091       -2.3138484195
 O         -2.3787207510        0.6760012691       -1.6193933095
 C         -2.0511734005       -0.6010521408       -1.1891772996
 O         -1.7003619004       -1.3754175907       -2.0996118996
 O         -2.5218230903       -0.1149867710        2.3687390105
 C         -1.7552591998       -2.2687939507        0.6590548304
 C         -0.3044997598       -2.5057230503        0.3177118602
 C          0.1632012005       -3.6168851801       -0.3698676598
 C          1.5041250605       -3.7247689797       -0.7000939800
 C          2.4052998603       -2.7364264594       -0.3494575300
 C          1.9491981700       -1.6308579995        0.3546992400
 C          0.6101345800       -1.5269765000        0.6882051402
 H          0.2589725098       -0.6538886801        1.2263066702
 N          2.8644481697       -0.6043151293        0.7068040899
 S          3.2590630592        0.4299090109       -0.5752090801
 O          2.2778019089        1.4937878306       -0.6613807800
 O          3.4665793394       -0.3580998690       -1.7619922901
 C          4.8133929891        1.0865056914       -0.0005847702
 C          4.8501037088        2.3209445914        0.6174723698
 C          6.0612321987        2.7943980617        1.0979058897
 C          7.2073201789        2.0271923721        0.9561878195
 C          7.1542217192        0.7889386221        0.3333556395
 C          5.9467357193        0.3107465317       -0.1491741904
 H          5.8575962896       -0.6411872083       -0.6455598804
 H          8.0478123894        0.1959910924        0.2233986594
 H          8.1479619188        2.3975476324        1.3320517794
 H          6.1050859384        3.7574146517        1.5807213497
 H          3.9355848586        2.8863117511        0.6990450699
 H          2.4845144496       -0.0206123694        1.4422926400
 H          3.4444923902       -2.7978581891       -0.6264763201
 H          1.8490696407       -4.5890135096       -1.2471747200
 H         -0.5252154193       -4.3916605903       -0.6651499298
 H         -1.8501099297       -2.2330878208        1.7545826304
 C         -2.6948280995       -3.3249078710        0.1199821205
 C         -2.8920104090       -4.6072905711        0.8703795505
 C         -3.9844400694       -3.5824165714        0.8382827506
 H         -4.8683673594       -3.7855264317        0.2526615207
 H         -4.1764692594       -3.0092377115        1.7336406206
 H         -3.0285043888       -5.5180284011        0.3073529805
 H         -2.3445533589       -4.7352393409        1.7918075904
 H         -2.7105917396       -3.3544126010       -0.9636178795
