  62
        -98.93834488
 C          1.8441689280        0.7684361694        0.2081090035
 C          2.3395274323       -0.5503769153        0.0903375745
 C          3.7714102634       -0.7370016697        0.3914271169
 C          4.5063973208        0.3250899334        0.7643250949
 C          5.9817040692        0.3610556264        1.0528640190
 C          6.7699096761        0.7571512007       -0.2072405702
 C          7.1458796691       -0.4058569772       -1.1245760251
 H          7.5771207629        0.0226009187       -2.0322847633
 H          7.9226420391       -1.0047556494       -0.6444829694
 C          5.9908214145       -1.3301972987       -1.5189371524
 H          5.1091873259       -0.7351261417       -1.7642369677
 H          6.2831266144       -1.8623489688       -2.4264299812
 C          5.6412381158       -2.3578866771       -0.4322240832
 H          6.4369683964       -2.3727478861        0.3124457052
 H          5.6132087932       -3.3558975040       -0.8746191080
 C          4.2877713438       -2.1439978471        0.2625656000
 H          3.5061990065       -2.6741662647       -0.2910792950
 H          4.3227250768       -2.5957549333        1.2596344656
 H          6.1712386662        1.4844974852       -0.7615484742
 H          7.6910687839        1.2575786183        0.0980177312
 H          6.1321664862        1.1303525180        1.8130560822
 H          6.3214308990       -0.5922605449        1.4463288790
 O          3.9828642255        1.5767492174        0.8801251751
 C          2.6530474936        1.8329783199        0.6036944184
 O          2.3134191814        3.0243963000        0.7507565386
 H         -1.7424569613       -0.5602333844       -0.8411320803
 C         -1.5472884706       -0.5508728650        0.2177425636
 C         -0.5118417705        0.2056433326        0.7426009749
 C         -0.2943472106        0.1759814397        2.1186090756
 C         -1.0732636951       -0.6124906927        2.9413939059
 C         -2.0962274742       -1.3800535075        2.4119317232
 C         -2.3294722770       -1.3497250004        1.0431615947
 N         -3.3521191446       -2.1276824043        0.4816121837
 S         -4.2911242796       -1.5288898227       -0.7597565233
 O         -5.4940478758       -2.3324024168       -0.7190235659
 O         -3.5651166790       -1.5458453145       -2.0038963272
 C         -4.6660383264        0.1500257410       -0.2865748675
 C         -4.2662229730        1.1965087633       -1.0906046581
 C         -4.5519138077        2.4939502062       -0.6955837230
 C         -5.2271552188        2.7206384701        0.4932288964
 C         -5.6273237826        1.6574857425        1.2887721119
 C         -5.3455540895        0.3590351994        0.8977895078
 H         -5.6535017412       -0.4892764727        1.4869635085
 H         -6.1559425795        1.8375955359        2.2109155980
 H         -5.4450863768        3.7315155586        0.7998877442
 H         -4.2452840997        3.3210382796       -1.3160986585
 H         -3.7413978022        0.9767903226       -2.0056611227
 H         -3.8983977438       -2.6558227749        1.1454224228
 H         -2.6991927810       -2.0072131288        3.0507267842
 H         -0.8847664116       -0.6311509130        4.0042524379
 H          0.5084638189        0.7724027735        2.5309617297
 C          0.3889171419        1.0647173075       -0.1098588911
 H          0.2260716693        2.1158556469        0.1701980181
 C          0.1510840736        0.9159180884       -1.5979096138
 C         -0.8840290827        1.7506041619       -2.2870177959
 C          0.5715992781        2.0292907734       -2.5082409950
 H          1.0081676427        1.7786891610       -3.4635055622
 H          1.0014197418        2.9074775452       -2.0482334482
 H         -1.4467940339        1.3046155010       -3.0937594004
 H         -1.4447259275        2.4469976666       -1.6823643416
 H          0.3058772389       -0.0988133270       -1.9475999663
 O          1.6263541224       -1.5288727556       -0.2557083691
