  62
        -98.94385821
 C         -1.7880821566        0.6609909686       -0.4972841952
 C         -3.0621062716        0.7077420516       -1.1116562381
 C         -4.2158136504        0.5617628486       -0.2144596936
 C         -4.0060415514        0.4094243952        1.1061453270
 C         -5.0859640895        0.1909730548        2.1250716792
 C         -5.3597940941       -1.3053694890        2.3318481187
 C         -5.5593603477       -2.0829497285        1.0308350845
 H         -4.6218332638       -2.0868796398        0.4699349860
 H         -5.7750720841       -3.1190611450        1.3007877909
 C         -6.6826857239       -1.5435409580        0.1343394092
 H         -7.3462255556       -0.9031430605        0.7166535689
 H         -7.2784213396       -2.3851974399       -0.2253353467
 C         -6.1976982609       -0.7812813703       -1.1002295421
 H         -7.0518590251       -0.6355373209       -1.7669289526
 H         -5.4631853927       -1.3856408166       -1.6388587992
 C         -5.5845808398        0.5992828361       -0.8337452927
 H         -5.4629612408        1.0996508903       -1.7990460069
 H         -6.2679140609        1.1932064557       -0.2232990448
 H         -6.2464169735       -1.4107076291        2.9597136454
 H         -4.5122684586       -1.7425373249        2.8650096821
 H         -5.9937329325        0.6953385123        1.7995873599
 H         -4.7592859161        0.6250193482        3.0715171934
 O         -2.7687368664        0.3900720180        1.6627681777
 C         -1.6280406068        0.5087734791        0.8804904324
 O         -0.5618954509        0.4656487847        1.5196941693
 O         -3.2251421521        0.8616440796       -2.3527326732
 C         -0.5555306263        0.8040180586       -1.3679867758
 C          0.3658038530       -0.3849647128       -1.2424807063
 C         -0.1472545970       -1.6536983014       -0.9913531221
 C          0.6887554377       -2.7459102178       -0.8525401271
 C          2.0594475782       -2.6031868160       -0.9787454894
 C          2.5808129609       -1.3493846312       -1.2600866378
 C          1.7395834087       -0.2515642502       -1.3909651304
 H          2.1658641320        0.7172879148       -1.6025841802
 N          3.9831670368       -1.2073181001       -1.3854742058
 S          4.8315760105       -1.2258570750        0.0620138001
 O          6.2247035816       -1.0768134413       -0.2921638137
 O          4.4752408450       -2.4152950057        0.7900517159
 C          4.2621799274        0.2367847525        0.9079874732
 C          5.0257786283        1.3867762089        0.8500178688
 C          4.5294707054        2.5488543881        1.4174390734
 C          3.2748599928        2.5468767522        2.0099325733
 C          2.5181852909        1.3860339419        2.0555698430
 C          3.0163945245        0.2168454083        1.5021469228
 H          2.4433467696       -0.6959005413        1.5257209206
 H          1.5296565165        1.3751367905        2.4871563140
 H          2.8810466051        3.4559570563        2.4373593392
 H          5.1149394449        3.4539010577        1.3879600286
 H          5.9906707280        1.3444550864        0.3706617304
 H          4.2526091553       -0.3815703405       -1.9037233826
 H          2.7290730651       -3.4374943746       -0.8497928472
 H          0.2692075675       -3.7183868242       -0.6425002604
 H         -1.2171664397       -1.7755055139       -0.8911688262
 H         -0.9334846282        0.8361500072       -2.4016412443
 C          0.1449932569        2.1153724193       -1.0654740363
 C          0.7996085999        2.9056413675       -2.1582967902
 C         -0.4763483339        3.3926998014       -1.5421126233
 H         -0.4441451959        4.2560286172       -0.8949520957
 H         -1.3861974134        3.3137900524       -2.1193200396
 H          1.7108186763        3.4397060611       -1.9333418377
 H          0.7533346039        2.5104743635       -3.1621846726
 H          0.6079805467        2.1191523144       -0.0848826537
