  62
        -98.93640671
 C          1.4309013402        1.2125071204        0.2349056904
 C          2.4493918899        0.8405547097        1.1434732304
 C          3.1660583600       -0.4222076101        0.8756248697
 C          2.7702167803       -1.1791904193       -0.1642672110
 C          3.3658829505       -2.4726415589       -0.6531097218
 C          4.6823719207       -2.2647135683       -1.4198643612
 C          5.6515331705       -1.2737495688       -0.7805299501
 H          6.4852443908       -1.1308333783       -1.4730395197
 H          5.1559442805       -0.3076118689       -0.6685750196
 C          6.2315170301       -1.7048019898        0.5644410298
 H          6.9630665700       -0.9483373000        0.8602602706
 H          6.7649013101       -2.6497459197        0.4386180092
 C          5.2256370897       -1.8639036807        1.7063711493
 H          5.7975829094       -1.9346325314        2.6363610994
 H          4.6722963498       -2.7947637106        1.6146318184
 C          4.2637610896       -0.6919674708        1.8765601799
 H          3.7607751193       -0.7927121216        2.8463985196
 H          4.8412199696        0.2369308491        1.9499628508
 H          5.1718945308       -3.2333502283       -1.5337684317
 H          4.4367331711       -1.8912248376       -2.4168864310
 H          3.5050202302       -3.1581468296        0.1777647878
 H          2.6376004607       -2.9191566684       -1.3335095523
 O          1.7350261806       -0.8163676287       -0.9725831311
 C          1.0437566405        0.3748471111       -0.8127136804
 O          0.1338368708        0.5474828418       -1.6409507506
 O          2.7577188195        1.5361230689        2.1498020810
 C          0.6881605401        2.5116497002        0.4916450111
 C         -0.7980488899        2.2704168202        0.4028943604
 C         -1.6489882196        2.9642722708       -0.4458376893
 C         -2.9982131696        2.6562661609       -0.4915437700
 C         -3.5256433999        1.6525155203        0.2984810491
 C         -2.6812353201        0.9500212796        1.1491405988
 C         -1.3351299602        1.2696657796        1.2044950895
 H         -0.6789219804        0.7168038491        1.8664211093
 N         -3.2022591904       -0.0948058710        1.9374118878
 S         -4.1003825201       -1.2602545904        1.1331776367
 O         -5.4426748100       -0.7717498203        0.9376089966
 O         -3.9768596204       -2.4537675810        1.9414988058
 C         -3.2967882796       -1.4827617292       -0.4421660032
 C         -2.0415064396       -2.0570983792       -0.4555774132
 C         -1.3853465192       -2.2064397182       -1.6651392431
 C         -1.9895911888       -1.7728580974       -2.8343379330
 C         -3.2495705088       -1.1978679474       -2.8043696930
 C         -3.9129416592       -1.0490607583       -1.5973560231
 H         -4.8942230892       -0.6085019084       -1.5301268031
 H         -3.7135250285       -0.8583189567       -3.7163997929
 H         -1.4679711585       -1.8780224867       -3.7722357629
 H         -0.3988012992       -2.6407618682       -1.6907331831
 H         -1.5985692399       -2.3832142699        0.4729893367
 H         -2.5097403906       -0.5351423214        2.5258887277
 H         -4.5715778999        1.3937066903        0.2680059585
 H         -3.6470647094        3.2010098413       -1.1601301498
 H         -1.2538519494        3.7304225413       -1.0918793086
 H          0.9289587397        2.7612805794        1.5390682414
 C          1.1652230003        3.6841576208       -0.3517735879
 C          2.5587908205        3.7231009912       -0.9020843974
 C          1.3921685408        3.5668074719       -1.8282043679
 H          1.1233241110        4.4039748424       -2.4557181773
 H          1.2187389610        2.6049018723       -2.2838018487
 H          3.0887023405        4.6638409012       -0.8908420165
 H          3.1911655405        2.8649520711       -0.7259952378
 H          0.7673008202        4.6286881505        0.0064765727
