  62
        -98.94780688
 C         -1.0562115666       -1.2261146306        0.0636605112
 C         -1.5506485166       -0.2234594030        0.9302377782
 C         -2.4344877299        0.7779235758        0.3197360957
 C         -2.7049141858        0.7004961222       -0.9961428878
 C         -3.6129314538        1.6363867309       -1.7391858704
 C         -5.0581038901        1.1192220300       -1.7539354531
 C         -5.5790275364        0.7069499953       -0.3770800129
 H         -6.6160836824        0.3890665440       -0.5038314839
 H         -5.0156833864       -0.1622245224       -0.0301080676
 C         -5.5086299309        1.8134783950        0.6844951918
 H         -5.3967344194        2.7842731941        0.2002070604
 H         -6.4520488358        1.8319254619        1.2341067975
 C         -4.3949756359        1.6310538080        1.7170498063
 H         -4.5702903271        2.3367459966        2.5333444824
 H         -4.4475332560        0.6235400658        2.1369312158
 C         -2.9666837594        1.8665857622        1.2094524486
 H         -2.3061865587        1.8895139155        2.0814465656
 H         -2.9065746586        2.8359718173        0.7090921012
 H         -5.6987419315        1.8988113086       -2.1703125777
 H         -5.1069081629        0.2503270283       -2.4143544475
 H         -3.2507722901        1.7190278452       -2.7656838751
 H         -3.5705743549        2.6196777560       -1.2739953202
 O         -2.2144864032       -0.2780010385       -1.7980764612
 C         -1.3696980240       -1.2578262817       -1.2956403809
 O         -0.9797092639       -2.0833307035       -2.1433756893
 O         -1.2589130195       -0.1626765333        2.1553813086
 C         -0.0924113672       -2.2556464271        0.6170592833
 C          1.2686825809       -2.1470634013       -0.0310382559
 C          2.1565346025       -3.2169496666       -0.0708540412
 C          3.4070735882       -3.0686439836       -0.6443065104
 C          3.8065009407       -1.8570672778       -1.1793086110
 C          2.9265805525       -0.7812810557       -1.1451503497
 C          1.6761760304       -0.9346065019       -0.5675340654
 H          0.9953395242       -0.0987211899       -0.5726921753
 N          3.2798252525        0.4565631447       -1.6935208919
 S          2.5576224435        1.8790683718       -1.2187014173
 O          1.2016623457        1.9545263723       -1.7051489030
 O          3.4589421305        2.9025620621       -1.7054405729
 C          2.5828080072        1.8583962919        0.5643122154
 C          1.3989810736        1.8828410033        1.2715066096
 C          1.4399917999        1.8257849587        2.6551736751
 C          2.6621182955        1.7551115361        3.3049951524
 C          3.8455239532        1.7480508711        2.5816730141
 C          3.8086750883        1.7958274521        1.1979470111
 H          4.7079454096        1.7957381353        0.6040718726
 H          4.7938901107        1.6984759632        3.0919047227
 H          2.6898900170        1.7057008248        4.3820666451
 H          0.5143456067        1.8113998297        3.2081173906
 H          0.4633936202        1.9316753522        0.7351790386
 H          4.2430790708        0.5654624593       -1.9698075750
 H          4.7802195869       -1.7451276352       -1.6302203069
 H          4.0834430015       -3.9092363195       -0.6736646095
 H          1.8639119302       -4.1687478936        0.3416696462
 H          0.0237374817       -2.0016379349        1.6825174188
 C         -0.6767892553       -3.6514564817        0.5129046652
 C         -0.4414867452       -4.6637531511        1.5929882668
 C         -1.7930131487       -4.0369816027        1.4359123215
 H         -2.6025583407       -4.6351689791        1.0454560265
 H         -2.1048199624       -3.3041450906        2.1660094857
 H         -0.3234552714       -5.6991306223        1.3105396606
 H          0.1543289549       -4.3640454455        2.4419199274
 H         -0.7348686428       -3.9991196405       -0.5123968579
