  62
        -98.93474611
 C         -1.8003703874       -1.1106006500        0.2848709282
 C         -2.1461265940       -0.0342001977       -0.5671755232
 C         -3.5895894868        0.2370248641       -0.7326890059
 C         -4.4918251304       -0.5170414957       -0.0798876700
 C         -6.0061216904       -0.5031388512       -0.0956303896
 C         -6.7715030630        0.6869133535       -0.6683561567
 C         -6.6280934679        1.9832949647        0.1282715368
 H         -7.1454478023        1.8633825552        1.0835497508
 H         -7.1307514078        2.7805783894       -0.4236705347
 C         -5.1957682737        2.4160669003        0.4320564214
 H         -4.7157610236        1.6734229800        1.0728279089
 H         -5.2418831219        3.3483672181        1.0015598261
 C         -4.3126260489        2.6624648428       -0.7897091542
 H         -3.3813177211        3.1139469584       -0.4364156550
 H         -4.7986463642        3.3778016887       -1.4561524760
 C         -3.9390024763        1.4103837030       -1.6020071474
 H         -3.0407749492        1.6425542909       -2.1817958739
 H         -4.7238008982        1.1468176552       -2.3071455019
 H         -7.8291779099        0.4096124958       -0.6587119177
 H         -6.4985851339        0.8467026352       -1.7073460515
 H         -6.3058534802       -1.4029057532       -0.6445499302
 H         -6.3146306503       -0.6599915234        0.9428899640
 O         -4.1089559163       -1.5397440093        0.7397054567
 C         -2.7793194018       -1.8460244128        0.9582413419
 O         -2.5985386030       -2.7799353364        1.7643354534
 H          1.3485328911       -0.0531966611       -0.9961704103
 C          1.2831455496        0.3400016734        0.0064817622
 C          0.4466177276       -0.2689500070        0.9284743093
 C          0.3567320000        0.2766042052        2.2048692472
 C          1.0908673149        1.3965236456        2.5521358321
 C          1.9274155895        1.9998659084        1.6289353306
 C          2.0084987249        1.4718949985        0.3490350989
 N          2.8871770960        2.0716190253       -0.5884140829
 S          4.4935375655        1.6729544022       -0.3283462493
 O          4.9165003017        2.2535166179        0.9200536463
 O          5.2124804036        2.0913276301       -1.5102979625
 C          4.4822757982       -0.1070816425       -0.2039196639
 C          4.5929755663       -0.8563811015       -1.3581855948
 C          4.4730205663       -2.2343485249       -1.2771615200
 C          4.2306841505       -2.8344411604       -0.0507152720
 C          4.1200443919       -2.0676632136        1.0993128513
 C          4.2443062761       -0.6896791149        1.0248996889
 H          4.1631389557       -0.0591061297        1.8951880692
 H          3.9276152562       -2.5369230468        2.0508064938
 H          4.1261900035       -3.9066010376        0.0098098137
 H          4.5602222197       -2.8347450183       -2.1685827505
 H          4.7803505365       -0.3500107640       -2.2917006830
 H          2.6406607883        1.8496217635       -1.5434111337
 H          2.5223943990        2.8625217310        1.8816387816
 H          1.0121561373        1.8029541764        3.5491587326
 H         -0.2999608191       -0.1900049165        2.9265849522
 C         -0.3594785394       -1.4940004487        0.5818380976
 H         -0.4194211536       -2.1245980547        1.4829305896
 C          0.3104938526       -2.3383233430       -0.4931813365
 C         -0.4482603000       -3.4308836237       -1.1832938308
 C         -0.0139775464       -2.2198520054       -1.9505402656
 H          0.7930446639       -2.3276971929       -2.6607787609
 H         -0.7623564776       -1.5023022351       -2.2475540089
 H         -1.4964063877       -3.5346008533       -0.9421246772
 H          0.0522227733       -4.3686207093       -1.3702741783
 H          1.3464128486       -2.5495276327       -0.2438709722
 O         -1.3101663151        0.6740869983       -1.1846302866
