  62
        -98.94665669
 C          1.1516264861        1.3466268387        0.2964344858
 C          1.3667377936        0.3425260998       -0.6786279569
 C          2.3469787402       -0.6921147990       -0.3240597750
 C          2.9202719207       -0.6920044818        0.8919135924
 C          3.9287083518       -1.6866543334        1.3992893267
 C          5.3729117030       -1.3669660274        0.9886216235
 C          5.7000314876       -1.6190963191       -0.4839624242
 H          6.7860313598       -1.5660791314       -0.5837801397
 H          5.3985196503       -2.6315243605       -0.7543742570
 C          5.0667717453       -0.6139761797       -1.4563751145
 H          4.7477790665        0.2743414850       -0.9062935460
 H          5.8163187625       -0.2878449512       -2.1810823105
 C          3.8782884492       -1.1590266500       -2.2489789943
 H          4.2149778344       -1.9639224428       -2.9061772548
 H          3.4883981899       -0.3536221029       -2.8765963563
 C          2.7275477338       -1.6847212862       -1.3804281796
 H          1.8560454484       -1.8396131531       -2.0206776050
 H          3.0052115716       -2.6358366623       -0.9279969518
 H          5.5850493302       -0.3242170311        1.2358675049
 H          6.0311349150       -1.9921955432        1.5963452308
 H          3.8687595182       -1.6643176466        2.4895822683
 H          3.6703577915       -2.6881092899        1.0539986682
 O          2.6199749628        0.2375383820        1.8359254641
 C          1.7675079679        1.2885667618        1.5519186708
 O          1.6326071491        2.1007158762        2.4887576056
 H         -1.2310268883        0.8406717711       -1.3906082204
 C         -1.8075968806        1.2911063341       -0.5961479185
 C         -1.1968521047        2.2040716328        0.2519364883
 C         -1.9466085615        2.7536083550        1.2850423640
 C         -3.2734989806        2.3990150600        1.4620633219
 C         -3.8764931452        1.4816724688        0.6193346024
 C         -3.1302324264        0.9217157893       -0.4087185901
 N         -3.7176518965       -0.0674656013       -1.2352790255
 S         -3.9306445003       -1.5422000144       -0.4690363858
 O         -4.3077564092       -2.4787922953       -1.5024856679
 O         -4.8720089367       -1.3652754377        0.6070880113
 C         -2.3302947686       -1.9751038838        0.1935814013
 C         -1.5320526844       -2.8580333639       -0.5048509168
 C         -0.2814311656       -3.1745476795       -0.0010333297
 C          0.1553524900       -2.5893822136        1.1769209116
 C         -0.6495482158       -1.6888944453        1.8565636097
 C         -1.9077501933       -1.3802837676        1.3660227331
 H         -2.5640036393       -0.6974416211        1.8808526560
 H         -0.2984533465       -1.2208663179        2.7633183251
 H          1.1279380320       -2.8347309693        1.5725012548
 H          0.3498635445       -3.8715131960       -0.5280557529
 H         -1.9102176053       -3.2900749295       -1.4175885770
 H         -3.1865777331       -0.2228693445       -2.0822673753
 H         -4.8986149731        1.1697835142        0.7594744763
 H         -3.8425242745        2.8362183913        2.2684965202
 H         -1.4771993087        3.4511309307        1.9635453612
 C          0.2584616082        2.5587492015        0.0714071328
 H          0.5281813159        3.2740049906        0.8596499310
 C          0.4980044431        3.2174755086       -1.2738931026
 C          0.1169531067        4.6541427995       -1.4580958789
 C          1.5627663162        4.2634410377       -1.3974249479
 H          2.1478164961        4.2990624956       -2.3042073354
 H          2.1223227815        4.5153684375       -0.5079991327
 H         -0.2938266041        4.9606017868       -2.4078021499
 H         -0.3028500591        5.1735364714       -0.6099065594
 H          0.3614618457        2.5484243332       -2.1130432635
 O          0.7919307122        0.2895106987       -1.7990065053
