  62
        -98.94822780
 C         -0.7870029598       -1.1564447595        0.6020893907
 C         -1.2500832198       -0.6577234802       -0.6392505496
 C         -2.1935009103        0.4641294694       -0.5576548102
 C         -2.4756157908        1.0141405998        0.6364465995
 C         -3.4323632113        2.1488056495        0.8839691289
 C         -4.8968924711        1.7035611389        1.0068833288
 C         -5.5617039907        1.2772400081       -0.3029502412
 H         -5.4185361808        2.0558777078       -1.0525252315
 H         -6.6337004107        1.2067393377       -0.1079862614
 C         -5.0724787000       -0.0690216119       -0.8555003806
 H         -5.9317481596       -0.6708324324       -1.1601991605
 H         -4.5595841899       -0.6226663814       -0.0654823703
 C         -4.1439525098        0.0417286580       -2.0651506304
 H         -4.6909814198        0.4692715274       -2.9082534007
 H         -3.8259904893       -0.9654468420       -2.3456920600
 C         -2.8869391002        0.8863629986       -1.8172033905
 H         -3.1514257406        1.9414959985       -1.7741200510
 H         -2.1944066499        0.7255492086       -2.6461298603
 H         -5.4599527816        2.5451792388        1.4171018783
 H         -4.9537963609        0.8844357091        1.7276468091
 H         -3.3438737314        2.8889536392        0.0891537486
 H         -3.1352043917        2.6084165400        1.8289367188
 O         -1.8974791308        0.5907405405        1.7935865098
 C         -1.0843748303       -0.5311594392        1.8119060504
 O         -0.6899604204       -0.8628693186        2.9496606506
 O         -0.9151817493       -1.1349889805       -1.7530375593
 C          0.0603746307       -2.4157616591        0.6413553814
 C          1.3121101408       -2.2257424789       -0.1775050484
 C          1.7000250514       -3.0760966091       -1.2040777180
 C          2.8596663014       -2.8256251189       -1.9168980178
 C          3.6535549809       -1.7338831685       -1.6200136781
 C          3.2819047903       -0.8862247182       -0.5810053085
 C          2.1199613203       -1.1372905284        0.1299241814
 H          1.8390486198       -0.4837172082        0.9440513610
 N          4.0835083698        0.2102861223       -0.2416904188
 S          3.5231529290        1.4957685124        0.6428791606
 O          4.5215420186        2.5244501527        0.4339143104
 O          3.3084599889        1.1106056128        2.0159465907
 C          1.9911194190        2.0424660114       -0.0904565799
 C          1.0666363185        2.6466893613        0.7373238097
 C         -0.0761658016        3.1975556806        0.1823292792
 C         -0.2792977413        3.1255246600       -1.1864724508
 C          0.6469647492        2.4975388501       -2.0026800804
 C          1.7992530893        1.9577715008       -1.4544024999
 H          2.5361857196        1.4745729709       -2.0747800896
 H          0.4789769594        2.4305117696       -3.0653301104
 H         -1.1634123314        3.5635144295       -1.6207300112
 H         -0.7980614919        3.6817671606        0.8199275489
 H          1.2581739983        2.6699908218        1.7989495697
 H          4.8150860398        0.4534688423       -0.8913103487
 H          4.5557326809       -1.5374530883       -2.1783754280
 H          3.1468841019       -3.4885233491       -2.7187600475
 H          1.0918605218       -3.9294571795       -1.4533060178
 H          0.3607529806       -2.5478853686        1.6912759715
 C         -0.7738010087       -3.6071058997        0.2167808017
 C         -0.4355499682       -4.9794764093        0.7134718423
 C         -1.6519028586       -4.2734546896        1.2310293018
 H         -2.6249250384       -4.6244737702        0.9213284617
 H         -1.6300444390       -3.8826834092        2.2383953916
 H         -0.5763027177       -5.8191375596        0.0498515226
 H          0.4126838417       -5.0761027687        1.3742388425
 H         -1.1634275385       -3.5068633302       -0.7897400584
