  62
        -98.93886164
 C          1.8819995199        0.8836127891       -0.1048992332
 C          2.4632710276        0.1271418710        0.9367002674
 C          3.5905845309       -0.7543985697        0.5764419750
 C          3.9697823903       -0.8224846235       -0.7135678959
 C          5.1064468629       -1.6102680126       -1.3083374779
 C          6.4770251780       -0.9693828610       -1.0341046711
 C          6.6775166268       -0.4624622419        0.3918195768
 H          7.6329844480        0.0676998854        0.4241114783
 H          5.8969229257        0.2632402701        0.6272172899
 C          6.7077006575       -1.5438657849        1.4692125185
 H          7.5196176770       -2.2419687084        1.2533062414
 H          6.9372578688       -1.0511059403        2.4174655705
 C          5.4163358643       -2.3439904077        1.6505166729
 H          5.5059583957       -2.8979745579        2.5897096603
 H          5.3020943155       -3.0865997090        0.8653391447
 C          4.1520971595       -1.4978660239        1.7648665747
 H          4.2942449083       -0.7467663786        2.5503006967
 H          3.3373254278       -2.1385934582        2.1243690675
 H          6.5908773858       -0.1171028290       -1.7083978148
 H          7.2529209919       -1.6972823588       -1.2771256646
 H          5.0783188500       -2.6354241270       -0.9508897968
 H          4.9420423153       -1.6307497172       -2.3879994900
 O          3.3501379469       -0.1050814444       -1.6937196892
 C          2.3019532628        0.7573108866       -1.4286197010
 O          1.8420577886        1.3344167740       -2.4313154372
 O          2.0599990014        0.1815487371        2.1314628885
 C          0.7345771898        1.8237500206        0.2190408764
 C         -0.5207307481        1.3484399747       -0.4703429301
 C         -1.3042495800        2.1514914188       -1.2873470481
 C         -2.4332994286        1.6356690996       -1.9017053005
 C         -2.8115053772        0.3208717108       -1.7061283763
 C         -2.0469667682       -0.4850417203       -0.8705852541
 C         -0.9170973484        0.0327896240       -0.2577115049
 H         -0.3192965870       -0.5974473241        0.3891845936
 N         -2.4344941882       -1.8161460586       -0.6453300997
 S         -4.0553863229       -2.1301402456       -0.3754480552
 O         -4.0789725628       -3.3270426796        0.4361347018
 O         -4.7502370941       -2.2136862864       -1.6360403810
 C         -4.6598529403       -0.7313764425        0.5534065368
 C         -4.0543513816       -0.4385369418        1.7594834078
 C         -4.4920557702        0.6611072928        2.4792940517
 C         -5.5232887069        1.4447810765        1.9840515666
 C         -6.1251152757        1.1338746697        0.7748641963
 C         -5.6895320371        0.0365638168        0.0492431654
 H         -6.1258600011       -0.2389180730       -0.8970520369
 H         -6.9280851685        1.7435510441        0.3932019747
 H         -5.8588130074        2.3021549617        2.5458076189
 H         -4.0243859203        0.9037443946        3.4200759471
 H         -3.2570825323       -1.0686775301        2.1206492797
 H         -1.8454648204       -2.3133131283        0.0057097958
 H         -3.6759594737       -0.0991604195       -2.1940920207
 H         -3.0252268696        2.2670302491       -2.5463605603
 H         -1.0251727021        3.1781274385       -1.4556900832
 H          0.5814614580        1.7301768670        1.3043813562
 C          1.1067599553        3.2555222458       -0.0995950656
 C          0.4474274437        4.3841636357        0.6335281474
 C          1.8800118653        4.0450682394        0.9123349459
 H          2.6495362608        4.7170513453        0.5629861982
 H          2.1195893821        3.5570311711        1.8459404589
 H          0.2333716230        5.2942452747        0.0940464273
 H         -0.2874818037        4.1311220914        1.3823622171
 H          1.3606797038        3.3985925873       -1.1436318271
