  62
        -98.94791629
 C         -0.9152057537       -1.1014692040        0.6880291854
 C         -1.4268386835       -0.9282693566       -0.6207163578
 C         -2.1697832374        0.3180755195       -0.8557112863
 C         -2.2891438572        1.2132760801        0.1413062462
 C         -3.0507521397        2.5038400688        0.0489213688
 C         -4.5115812656        2.3215948923        0.4840494177
 C         -5.2093047880        1.1336339015       -0.1778249371
 H         -4.7383621876        0.2087052726        0.1624071873
 H         -6.2409025062        1.1210918355        0.1802465250
 C         -5.2015332038        1.1684429417       -1.7124472109
 H         -4.9814319736        2.1785355580       -2.0600479830
 H         -6.1991837204        0.9112403915       -2.0744576202
 C         -4.2252859961        0.1869698266       -2.3640747921
 H         -4.3802521163       -0.8131184271       -1.9514502652
 H         -4.4521663264        0.1389072723       -3.4325129318
 C         -2.7375994602        0.5365201306       -2.2289011635
 H         -2.1729730087       -0.1260155276       -2.8920495109
 H         -2.5656575500        1.5642596186       -2.5574573509
 H         -5.0563547763        3.2393919910        0.2556480041
 H         -4.5338460038        2.1720241009        1.5657849575
 H         -2.5747339021        3.2349204012        0.7048545723
 H         -3.0068033748        2.8708302796       -0.9750890734
 O         -1.7600005605        1.0237228036        1.3772811482
 C         -1.0517949154       -0.1290867624        1.6771605895
 O         -0.5978376483       -0.1670181056        2.8385451768
 H          1.4576877452       -0.3042206809        0.3494392038
 C          1.8048875639       -1.2198529776       -0.1070970877
 C          1.1133350877       -2.4006327087        0.1307716178
 C          1.5828047305       -3.5716688505       -0.4497598959
 C          2.6988049367       -3.5461219902       -1.2686993465
 C          3.3581359592       -2.3602451175       -1.5357874424
 C          2.9024478214       -1.1847323401       -0.9498861059
 N          3.5449319189        0.0427442360       -1.1749829928
 S          2.6216571063        1.4309557112       -1.3300224255
 O          1.3583253371        1.1734535350       -1.9803341929
 O          3.5000223623        2.3659837816       -2.0041159664
 C          2.3594087569        1.9963239732        0.3364586268
 C          1.1090872303        2.4605290019        0.6921143818
 C          0.9051443099        2.9219658850        1.9822401281
 C          1.9536723077        2.9150974425        2.8883820123
 C          3.2062649705        2.4532902357        2.5133752918
 C          3.4164783842        1.9903251663        1.2245089566
 H          4.3739408019        1.6197845059        0.8983918167
 H          4.0172223019        2.4487638674        3.2238024315
 H          1.7887287195        3.2677229319        3.8941520673
 H         -0.0727447322        3.2669294563        2.2778875072
 H          0.3170506408        2.4294922038       -0.0412743664
 H          4.2977157470        0.0153696948       -1.8475675186
 H          4.2141158808       -2.3395724233       -2.1930435288
 H          3.0515367615       -4.4619196195       -1.7184715881
 H          1.0699010613       -4.5023558486       -0.2701751977
 C         -0.1023802556       -2.3384925629        1.0244424213
 H          0.2434126616       -2.2027521260        2.0601334187
 C         -0.9665018355       -3.5804574869        0.9567552306
 C         -0.6796094115       -4.7518262904        1.8461812135
 C         -1.8764211685       -3.8887629647        2.1065540591
 H         -2.8579399236       -4.2862440128        1.8959917417
 H         -1.8499864574       -3.2160474847        2.9516781906
 H          0.1569213565       -4.6726470093        2.5238075167
 H         -0.8426112030       -5.7460481057        1.4581749189
 H         -1.3395197742       -3.7723846284       -0.0427554450
 O         -1.2765233322       -1.7721573859       -1.5427843099
