  62
        -98.94360767
 C          2.6386654880        0.1388081529       -0.1855022418
 C          2.1496169244        0.9135642038        0.8956740729
 C          1.7336712738        2.2870290460        0.5653918336
 C          1.8088575118        2.7201171839       -0.7047032354
 C          1.3828969639        4.0786122475       -1.1806985092
 C         -0.0795453864        4.0831644934       -1.6440875000
 C         -1.0534676117        3.4590785641       -0.6436475971
 H         -2.0586455793        3.5769809600       -1.0560076712
 H         -0.8665311746        2.3842708950       -0.5761168454
 C         -1.0054688453        4.0737697399        0.7618721566
 H         -2.0296149713        4.2158261729        1.1136485095
 H         -0.5348917066        5.0576281024        0.7209823139
 C         -0.2955633298        3.2129840232        1.8089658970
 H         -0.5279283710        3.6203278649        2.7973064580
 H         -0.6914579790        2.1943050322        1.7751822419
 C          1.2328109015        3.1445279314        1.6934162029
 H          1.6429056254        4.1546842370        1.6193545866
 H          1.6128611285        2.6841805440        2.6103389929
 H         -0.1484923585        3.5217264057       -2.5786816152
 H         -0.3726985884        5.1162563184       -1.8425728935
 H          1.5213833262        4.7972933060       -0.3750544607
 H          2.0205435103        4.3601057480       -2.0208813789
 O          2.2706369012        1.9459548493       -1.7201542369
 C          2.6727100554        0.6436303818       -1.4881816245
 O          3.0610212706        0.0408691001       -2.5111273338
 H          0.4997332652       -1.0168871619        0.7843339459
 C          0.6351798697       -1.9047403719        0.1861470566
 C          1.8880016926       -2.2288022341       -0.3099235764
 C          2.0272302935       -3.3939949920       -1.0556616709
 C          0.9326815705       -4.1993552753       -1.3139907094
 C         -0.3257542124       -3.8423676762       -0.8636836202
 C         -0.4731468942       -2.6831563667       -0.1114227912
 N         -1.7313800703       -2.2638115750        0.3525894571
 S         -2.0240395511       -0.5954441058        0.2869428920
 O         -1.4080805232       -0.0352966869       -0.8940541576
 O         -1.6586818942       -0.0130505365        1.5523544920
 C         -3.8004386056       -0.5783116143        0.1272574238
 C         -4.3707574791       -0.3692784340       -1.1136682948
 C         -5.7521855834       -0.3905240573       -1.2285837232
 C         -6.5345811630       -0.6230885046       -0.1075314863
 C         -5.9474162880       -0.8303864517        1.1320705530
 C         -4.5672821213       -0.8080581415        1.2543568591
 H         -4.0656946434       -0.9525790342        2.1970485120
 H         -6.5587877472       -1.0082155968        2.0019243103
 H         -7.6089485966       -0.6404967567       -0.2001147126
 H         -6.2109420652       -0.2256318903       -2.1901546606
 H         -3.7209268068       -0.1859160772       -1.9544895429
 H         -2.4945211422       -2.7938866010       -0.0466649455
 H         -1.1868858369       -4.4506023099       -1.0954624636
 H          1.0548335383       -5.1001271153       -1.8959932845
 H          2.9969720209       -3.6545328602       -1.4524646168
 C          3.0674218417       -1.3150128521       -0.0644237408
 H          3.7877886389       -1.4849570225       -0.8780160725
 C          3.7405030074       -1.6654812150        1.2478077134
 C          4.7448768960       -2.7765514326        1.2843144798
 C          5.1937445033       -1.3547501917        1.4351463323
 H          5.5231438011       -1.0111425088        2.4038516599
 H          5.7141210171       -0.8930762343        0.6083607013
 H          4.7678094839       -3.4178387414        2.1517870264
 H          4.9732202172       -3.2804362675        0.3575700598
 H          3.0924150093       -1.5417213600        2.1054331681
 O          2.0648054871        0.5095718413        2.0862201546
