  62
        -98.93803102
 C         -0.9377292176       -1.7069453146       -0.4590551867
 C         -2.0673138367       -1.7664710651        0.3968933159
 C         -3.1584005808       -0.8105039902        0.1446022781
 C         -3.0309100305        0.0551704986       -0.8772483981
 C         -4.0205649858        1.1091354097       -1.2905346203
 C         -3.9713465363        2.3669633262       -0.3965275942
 C         -3.5581578668        2.1179439739        1.0540306389
 H         -2.6459353698        1.5180122449        1.0690664459
 H         -3.3130859453        3.0819169039        1.5066408763
 C         -4.6281270702        1.4576809442        1.9240661709
 H         -4.1725136265        1.1992000552        2.8830517473
 H         -5.4200103333        2.1859982283        2.1173635303
 C         -5.2843582535        0.2094606200        1.3388535010
 H         -5.8439409327        0.4716445741        0.4446689099
 H         -6.0139988092       -0.1511467376        2.0703326693
 C         -4.3437561866       -0.9632092764        1.0643316698
 H         -4.9409634443       -1.7984412610        0.6768881792
 H         -3.9251020210       -1.3137831730        2.0139094578
 H         -4.9471881151        2.8537776952       -0.4190346973
 H         -3.2425797715        3.0524791591       -0.8299103745
 H         -3.7738987602        1.3948396606       -2.3148985860
 H         -5.0151991095        0.6695787736       -1.3020999770
 O         -1.9230034629        0.0963900381       -1.6634678975
 C         -0.8555488854       -0.7722962266       -1.4901250024
 O          0.0635435628       -0.5934677273       -2.3129596576
 O         -2.1639681169       -2.6014783985        1.3371730938
 C          0.1591225559       -2.7192415278       -0.1861838297
 C          1.2019106631       -2.1859621195        0.7687304387
 C          1.5804939525       -2.9340017788        1.8770169804
 C          2.5620075550       -2.4717883028        2.7348358519
 C          3.1848813697       -1.2616016192        2.4969236058
 C          2.8089852194       -0.4992325649        1.3939951381
 C          1.8159561791       -0.9613091640        0.5412595131
 H          1.5360667707       -0.3762473771       -0.3204513600
 N          3.4129421617        0.7411082970        1.1769905398
 S          3.4348177723        1.5613689727       -0.2740034634
 O          3.5683978857        0.6718812861       -1.4013360436
 O          4.5030172328        2.5246893466       -0.0981510962
 C          1.8887088933        2.4398420749       -0.2940619563
 C          0.9892254092        2.2668765440       -1.3245218477
 C         -0.1879948217        3.0001604054       -1.3131124039
 C         -0.4390014099        3.8903688664       -0.2816808860
 C          0.4765026218        4.0524629085        0.7476827922
 C          1.6524458576        3.3223896242        0.7429546558
 H          2.3951057327        3.4278685590        1.5162175378
 H          0.2756068743        4.7451474215        1.5489967580
 H         -1.3514644834        4.4659860919       -0.2795296232
 H         -0.8998282166        2.8592945275       -2.1111824171
 H          1.2024685024        1.5517480948       -2.1042915486
 H          4.2016139621        0.9577239305        1.7664385075
 H          3.9560023080       -0.9004087534        3.1599430356
 H          2.8482375153       -3.0605250164        3.5929916282
 H          1.0925059913       -3.8779040241        2.0688471436
 H         -0.3441586040       -3.5595083024        0.3129859883
 C          0.8432015459       -3.2478890256       -1.4318955299
 C          1.4228515654       -4.6293194661       -1.4157011791
 C          0.1917009411       -4.3418055850       -2.2207568890
 H          0.2676118579       -4.3136518578       -3.2972344789
 H         -0.7532945262       -4.7214709100       -1.8597569572
 H          2.3511297797       -4.8017849617       -1.9384555750
 H          1.3114868324       -5.2114160420       -0.5134713891
 H          1.3779085516       -2.4859137630       -1.9848308641
