  62
        -98.94617570
 C          1.1427485640        1.3045042845        0.0006147534
 C          1.6173592354        0.3994192625        0.9845334356
 C          2.4175400615       -0.7343590814        0.5048037883
 C          2.6255941900       -0.8739419045       -0.8168837740
 C          3.4327910347       -1.9711588380       -1.4469873921
 C          4.9017037024       -1.5592909040       -1.6152176588
 C          5.5237850555       -0.9700979425       -0.3491766288
 H          6.5684134573       -0.7452858622       -0.5747548374
 H          5.0325526399       -0.0214219473       -0.1211146533
 C          5.4507863750       -1.8875957846        0.8793268690
 H          5.2584650261       -2.9136144572        0.5637699365
 H          6.4212899801       -1.8786310647        1.3798293254
 C          4.4092856909       -1.4731115234        1.9202583681
 H          4.5398668147       -0.4163349268        2.1660688445
 H          4.5950176139       -2.0469872536        2.8319201379
 C          2.9427554844       -1.6993644797        1.5305554939
 H          2.8028774989       -2.7299743970        1.1974615403
 H          2.3370125254       -1.5420850652        2.4274957740
 H          5.4715087257       -2.4351831203       -1.9309877415
 H          4.9620663301       -0.8106656640       -2.4087005194
 H          3.3624287785       -2.8650615277       -0.8297269836
 H          3.0059273595       -2.1866875882       -2.4284975927
 O          2.1524782341        0.0050249868       -1.7335804981
 C          1.3994370037        1.1117569429       -1.3589453861
 O          1.0438705141        1.8172593761       -2.3226015395
 H         -1.0665525647        0.8341277391       -1.2489448835
 C         -1.7074089753        1.2713081643       -0.4999094207
 C         -1.1876256269        2.1292783695        0.4560353113
 C         -2.0576831662        2.6910129733        1.3854193024
 C         -3.4085909312        2.3992200282        1.3542233347
 C         -3.9164895770        1.5153335837        0.4180257019
 C         -3.0561354809        0.9442474951       -0.5105172056
 N         -3.5185386713        0.0096854029       -1.4569097192
 S         -2.7069759964       -1.4554810927       -1.5416331622
 O         -1.4318343144       -1.2969097355       -2.1917941521
 O         -3.6438308802       -2.3503635786       -2.1872618287
 C         -2.4914087542       -1.9187560291        0.1660810428
 C         -3.5591447291       -2.4853672462        0.8354445187
 C         -3.4342763307       -2.7555838474        2.1881980975
 C         -2.2577061622       -2.4369730279        2.8504182319
 C         -1.1955056839       -1.8686300743        2.1649367760
 C         -1.3096996971       -1.6114398158        0.8080536323
 H         -0.4976804288       -1.1739317118        0.2481277742
 H         -0.2824414441       -1.5988416599        2.6722523940
 H         -2.1648963615       -2.6323956287        3.9069881575
 H         -4.2552519356       -3.2040219158        2.7240101763
 H         -4.4554119217       -2.7159242419        0.2825460761
 H         -4.5157274086       -0.1510294878       -1.4201085012
 H         -4.9667224838        1.2674347936        0.4051556286
 H         -4.0715616701        2.8470762696        2.0781296862
 H         -1.6665274136        3.3545546974        2.1410837728
 C          0.2896186639        2.4548746301        0.4991960909
 H          0.5640045359        2.5830331851        1.5562152824
 C          0.5474044061        3.7641720625       -0.2229883075
 C          0.4152341954        5.0637395210        0.5104287012
 C          1.7703307176        4.5618730237        0.1135548132
 H          2.2976668347        5.0553945438       -0.6886984796
 H          2.4179653060        4.1767008507        0.8878999397
 H          0.0051134941        5.9102412052       -0.0182931571
 H          0.1575056003        5.0313496790        1.5577435705
 H          0.2460304227        3.7391420366       -1.2626481680
 O          1.3763895016        0.5333565911        2.2147457188
