  62
        -98.94506664
 C          0.8795136411        1.1130552096        0.7450427711
 C          1.1474680414        0.4799988304       -0.4941166293
 C          2.0983537712       -0.6400643598       -0.4361133398
 C          2.5221811408       -1.1003514606        0.7529883300
 C          3.4915689606       -2.2299293509        0.9723236395
 C          4.9631289007       -1.7991763410        0.8923598703
 C          5.4715167911       -1.4770519301       -0.5138087194
 H          6.5590696311       -1.4040812403       -0.4504031390
 H          5.2400382712       -2.3073340496       -1.1815188900
 C          4.9242649715       -0.1699621197       -1.1049560586
 H          5.7434031917        0.3982691105       -1.5513674480
 H          4.5093047013        0.4469454798       -0.3043012483
 C          3.8611509318       -0.3598829388       -2.1874136791
 H          3.5204953020        0.6275756415       -2.5092759085
 H          4.3049403219       -0.8591697183       -3.0513643693
 C          2.6356146915       -1.1643853290       -1.7327583600
 H          1.8508344518       -1.0546604683       -2.4843175201
 H          2.8966484814       -2.2174685090       -1.6406591706
 H          5.5652900005       -2.6172606914        1.2945605299
 H          5.1089231006       -0.9315215015        1.5403681309
 H          3.3011180803       -2.6169778716        1.9758764792
 H          3.3065677607       -3.0241783304        0.2488732189
 O          2.0859055405       -0.5809839314        1.9331270903
 C          1.3051747107        0.5639262187        1.9565662508
 O          1.0472088504        0.9812335179        3.1045375610
 H         -1.9311639091        0.6971021996        1.1230490100
 C         -2.0949370888        1.3362586002        0.2668668804
 C         -1.1503959185        2.3044796904       -0.0512834087
 C         -1.3837818681        3.1314759411       -1.1421005682
 C         -2.5321805879        2.9802416918       -1.8984813786
 C         -3.4652873581        2.0089346917       -1.5867061396
 C         -3.2428266786        1.1802499409       -0.4922711501
 N         -4.1821023988        0.2020663008       -0.1380271110
 S         -3.7455758092       -1.1687264198        0.6929100481
 O         -4.8524684592       -2.0772593896        0.4754193672
 O         -3.4622673095       -0.8536184208        2.0714513884
 C         -2.2952052290       -1.8392305895       -0.0998540019
 C         -2.2835766286       -1.9746724685       -1.4734122720
 C         -1.2018381085       -2.5947380183       -2.0760806921
 C         -0.1630628288       -3.0811597289       -1.2989655921
 C         -0.1846702892       -2.9303932499        0.0781735380
 C         -1.2580116293       -2.2989290501        0.6847288081
 H         -1.3079756396       -2.1540068909        1.7532010482
 H          0.6254355506       -3.3022347804        0.6849570380
 H          0.6684779212       -3.5809035887       -1.7691261422
 H         -1.1745088783       -2.7023891775       -3.1483447622
 H         -3.1126782184       -1.6041449980       -2.0537454720
 H         -4.9225544286        0.0405248613       -0.8035239314
 H         -4.3587608680        1.8899344822       -2.1800391799
 H         -2.6995562476        3.6235139624       -2.7489397583
 H         -0.6552182980        3.8765050812       -1.4156907675
 C          0.0717303112        2.3958359396        0.8267453217
 H         -0.2742930391        2.4520753089        1.8725335016
 C          0.9006219114        3.6477040097        0.5721588028
 C          2.3489094913        3.7021893392        0.9548652533
 C          1.9552640318        3.7087996003       -0.4900158068
 H          2.0699885220        4.6273217606       -1.0466356462
 H          2.1285425018        2.8190885207       -1.0743349474
 H          2.7915394911        2.8052390989        1.3640519328
 H          2.7301241813        4.6127228589        1.3922544040
 H          0.3267692915        4.5531220696        0.7442949933
 O          0.6485028217        0.8273481112       -1.5931643892
