  62
        -98.93726512
 C         -1.3023485396       -1.4515060214        0.6571692940
 C         -2.0591730494       -0.9431418863       -0.4269204482
 C         -2.9772122841        0.1687114657       -0.1197974653
 C         -3.0513115495        0.6458791484        1.1333001375
 C         -3.9413055596        1.7355303892        1.6767313733
 C         -4.0974393269        3.0111402542        0.8382242858
 C         -2.8561407010        3.4239853207        0.0334179263
 H         -2.6456133291        4.4787798638        0.2224716493
 H         -1.9774096353        2.8612407491        0.3565683314
 C         -3.0352441047        3.2470134896       -1.4761010914
 H         -4.0284475196        3.6035796982       -1.7601559280
 H         -2.2995115656        3.8731504422       -1.9869391580
 C         -2.8448321135        1.8210307698       -1.9890560845
 H         -1.7946566318        1.5347955781       -1.8753694002
 H         -3.0664274866        1.8133633691       -3.0593166659
 C         -3.7055617997        0.7504573625       -1.2962591839
 H         -3.8532240258       -0.0724410794       -2.0008842948
 H         -4.6781348818        1.1476225444       -1.0153814526
 H         -4.3615258560        3.8116540581        1.5316316405
 H         -4.9385252075        2.8979415396        0.1552007095
 H         -4.9310171570        1.3063078376        1.8600855154
 H         -3.5145725846        1.9900341949        2.6500166732
 O         -2.2977634430        0.1332011470        2.1471566970
 C         -1.3803444071       -0.8799918038        1.9272255617
 O         -0.6990587043       -1.1774183142        2.9303902744
 O         -1.9843252360       -1.3857995579       -1.6016593243
 C         -0.2298591190       -2.5084433226        0.4529188764
 C          0.6396028777       -2.1171302850       -0.7196534323
 C          1.0972459417       -2.9979886980       -1.6899948039
 C          1.9000062528       -2.5399068121       -2.7218407495
 C          2.2655781638       -1.2091500310       -2.8093297408
 C          1.8080631704       -0.3184369248       -1.8435730547
 C          1.0196139986       -0.7845109522       -0.8070849861
 H          0.6471026611       -0.0847275628       -0.0762521539
 N          2.1173909484        1.0453543807       -1.9052468462
 S          2.0775638222        2.0233201467       -0.5584386529
 O          0.7258607304        2.2051446464       -0.0922277775
 O          2.7672424792        3.2240037251       -0.9805727293
 C          3.0638571478        1.1754854104        0.6629783161
 C          2.4903375177        0.6766087415        1.8140721715
 C          3.2870182442       -0.0062676401        2.7200955825
 C          4.6382542369       -0.1747676104        2.4627099478
 C          5.2036335754        0.3415453674        1.3061185146
 C          4.4108795044        1.0205680315        0.3962078923
 H          4.8156753540        1.4458145116       -0.5075772783
 H          6.2561947626        0.2138468776        1.1113929015
 H          5.2526502591       -0.7092557735        3.1698151224
 H          2.8372899178       -0.4069461233        3.6148596166
 H          1.4347854674        0.8168338010        1.9921682274
 H          2.8096346986        1.3190794148       -2.5845133600
 H          2.8798937162       -0.8563328896       -3.6231640317
 H          2.2436944068       -3.2326475860       -3.4750477279
 H          0.8104510687       -4.0361023186       -1.6551629189
 H          0.3981000427       -2.4433665980        1.3582338761
 C         -0.7395290372       -3.9408237412        0.3866127133
 C         -2.1007008238       -4.3067293281        0.8969799547
 C         -1.8107120689       -4.3642991363       -0.5712755494
 H         -1.7265880288       -5.3350295383       -1.0378855625
 H         -2.2315415467       -3.6031146620       -1.2084040899
 H         -2.2119581540       -5.2331920796        1.4406431187
 H         -2.7300545097       -3.5075041153        1.2619375441
 H          0.0484506278       -4.6614247734        0.5825090942
