  62
        -98.93811508
 C          2.2406198721        0.9445828224        0.3186954556
 C          2.4167241224        0.0353455728       -0.7500400114
 C          3.2647225608       -1.1390765328       -0.4731190039
 C          3.7862293720       -1.2949860380        0.7560536676
 C          4.7150749087       -2.3804714225        1.2252417364
 C          6.1813120840       -1.9361370790        1.0875879684
 C          6.8139691473       -2.2165659546       -0.2749193388
 H          7.7976225869       -1.7414176404       -0.2795989403
 H          6.9694809504       -3.2920384962       -0.3831434388
 C          6.0192077613       -1.7132740736       -1.4827864137
 H          6.7088168644       -1.6297913395       -2.3249769805
 H          5.6350265371       -0.7120182019       -1.2795740098
 C          4.8646310107       -2.6461769017       -1.8775291001
 H          4.9828196746       -3.5974168805       -1.3588210163
 H          4.9271262082       -2.8662067578       -2.9452020538
 C          3.4554237122       -2.0903984623       -1.6228267882
 H          3.1199832542       -1.5301691834       -2.5012622049
 H          2.7580303375       -2.9261648852       -1.5025530787
 H          6.2283072279       -0.8654382203        1.3027552277
 H          6.7751177302       -2.4476614616        1.8478510777
 H          4.4980018420       -2.5409362177        2.2834599735
 H          4.5318123446       -3.3048764008        0.6856737400
 O          3.5618584339       -0.4098070835        1.7676433520
 C          2.7921842570        0.7233783063        1.5790199555
 O          2.6661165845        1.4385230914        2.5951423764
 H         -0.1076469910        0.2892381154        1.2090556994
 C         -0.6428355174        0.7946161813        0.4132342177
 C         -0.0083602270        1.8166553664       -0.2823267996
 C         -0.7133999443        2.4686073664       -1.2852487798
 C         -2.0079279272        2.0868819882       -1.5935223717
 C         -2.6266621507        1.0549320456       -0.9129456179
 C         -1.9365880266        0.4056053290        0.1026113427
 N         -2.5517820335       -0.6523910185        0.7952530370
 S         -4.0851836403       -0.3989392646        1.4315091741
 O         -4.2968862116        0.9908449119        1.7644990938
 O         -4.2037834331       -1.3455784811        2.5192940491
 C         -5.1804348690       -0.8872255713        0.1156926281
 C         -6.1551034312       -0.0158362445       -0.3294877591
 C         -7.0024590991       -0.4229276990       -1.3484236767
 C         -6.8613032372       -1.6871106679       -1.8998759627
 C         -5.8787156402       -2.5511435733       -1.4394573867
 C         -5.0292331085       -2.1510438992       -0.4204673616
 H         -4.2548977784       -2.7919843911       -0.0328086476
 H         -5.7714355342       -3.5332981949       -1.8710011237
 H         -7.5207935696       -2.0014264034       -2.6933320279
 H         -7.7671853038        0.2468203429       -1.7075360852
 H         -6.2231600901        0.9594938897        0.1254009581
 H         -1.9526563158       -1.0897606851        1.4802945186
 H         -3.6314191025        0.7502040495       -1.1557783574
 H         -2.5411195616        2.5981211046       -2.3803714135
 H         -0.2480291495        3.2737150853       -1.8295134407
 C          1.3986262585        2.1909968207        0.1192048918
 H          1.3477925965        2.6836635733        1.1020659179
 C          2.0785654398        3.1262175724       -0.8595862819
 C          1.9033929955        4.6091440562       -0.7374204044
 C          3.2121204232        3.9766446560       -0.3734301096
 H          4.0599460833        4.1289510283       -1.0243364917
 H          3.4733543068        3.9021352037        0.6726301100
 H          1.2787419644        4.9751979948        0.0634950528
 H          1.8560631915        5.1994599051       -1.6400389613
 H          2.1638918581        2.6977179600       -1.8514130355
 O          1.8971264691        0.1952760696       -1.8847505276
