  62
        -98.94753749
 C          0.7423835678        1.2813969279        0.0779529557
 C          1.4348343254        0.5361856996        1.0607648766
 C          2.3831315650       -0.4647146337        0.5549697051
 C          2.4857797856       -0.6611829832       -0.7720885929
 C          3.4792214627       -1.5747768435       -1.4280365096
 C          4.7759784408       -0.8234200167       -1.7640755005
 C          5.3409794129       -0.0102499318       -0.5991465433
 H          4.6505066830        0.8026426859       -0.3626304578
 H          6.2701180246        0.4488910045       -0.9438615764
 C          5.6159307088       -0.8259799696        0.6719910579
 H          6.5939883065       -0.5414668055        1.0657832921
 H          5.6619214062       -1.8879297942        0.4284521797
 C          4.6030055263       -0.6077040435        1.7977335511
 H          4.4883678526        0.4630170949        1.9852608591
 H          5.0052948703       -1.0572683381        2.7095994900
 C          3.2107840902       -1.2088703428        1.5642911376
 H          2.6595274740       -1.1498466697        2.5073480339
 H          3.3099598554       -2.2592471726        1.2858272092
 H          4.5757215052       -0.1391874468       -2.5917017603
 H          5.5198870917       -1.5498147156       -2.0962231967
 H          3.6965033021       -2.4083693560       -0.7640046401
 H          3.0424314111       -1.9533736478       -2.3528902659
 O          1.7316446492        0.0073093766       -1.6807514498
 C          0.8665489800        1.0160536344       -1.2859170720
 O          0.2771238413        1.5847014700       -2.2237560607
 H         -1.5497800575        0.1377358906        0.4480808220
 C         -2.1207027839        0.9433639064        0.0089605908
 C         -1.5643344100        2.2149170438       -0.0445876240
 C         -2.3155969826        3.2462494028       -0.5931456087
 C         -3.5835190959        2.9993045871       -1.0900323311
 C         -4.1289021690        1.7301542335       -1.0446393781
 C         -3.3876505790        0.6919302854       -0.4902478066
 N         -3.8926104662       -0.6135543189       -0.4651876212
 S         -3.4031275809       -1.7216844580        0.6752355920
 O         -4.3671119567       -2.7964515868        0.5619772877
 O         -3.2824128687       -1.1289903427        1.9873975320
 C         -1.8231120927       -2.3157337360        0.1109244234
 C         -0.8899957530       -2.7008258015        1.0527439421
 C          0.3099967648       -3.2449083567        0.6258499001
 C          0.5571013119       -3.3894292510       -0.7299707934
 C         -0.3837016187       -2.9844003639       -1.6636860474
 C         -1.5898002554       -2.4478220234       -1.2431414800
 H         -2.3417028933       -2.1248945020       -1.9441254355
 H         -0.1828776520       -3.0858217643       -2.7181689516
 H          1.4876884028       -3.8214126809       -1.0611590625
 H          1.0434896597       -3.5523816166        1.3534885938
 H         -1.1161975687       -2.5582343497        2.0977927633
 H         -4.8525900364       -0.7276532315       -0.7522228374
 H         -5.1150066624        1.5377961976       -1.4386641341
 H         -4.1554893192        3.8078092385       -1.5194452683
 H         -1.9074785766        4.2424803281       -0.6385261688
 C         -0.1771359640        2.4064169715        0.5143638695
 H         -0.2381645175        2.3297832036        1.6109675961
 C          0.4392591831        3.7430338854        0.1525573997
 C          0.1873254032        4.9523400787        1.0012391554
 C          1.5323036176        4.2921889881        1.0177942389
 H          2.3624373171        4.7955872197        0.5451522735
 H          1.8098220064        3.7154046032        1.8881919343
 H         -0.4458006942        4.8321163454        1.8674233379
 H          0.0962458330        5.9130655284        0.5171604371
 H          0.5341153496        3.8780590173       -0.9194413797
 O          1.2795599858        0.7110427892        2.3005076356
