  62
        -98.93782934
 C          2.3735976499        0.0042103908       -0.4465994808
 C          3.3551091901       -0.6861120192        0.3063749490
 C          4.4810652202        0.1286922508        0.7849146088
 C          4.5116905901        1.4505883508        0.5422026587
 C          5.5846514302        2.4101337008        0.9798888584
 C          6.8004775600        2.4532282808        0.0436939482
 C          7.7142503200        1.2283894808        0.1045827381
 H          8.6309004499        1.4862763108       -0.4296616921
 H          7.9870184602        1.0310359808        1.1417546680
 C          7.1182516199       -0.0393259793       -0.5232551317
 H          6.2771848598        0.2325640707       -1.1652086316
 H          7.8661698698       -0.5159730393       -1.1609663019
 C          6.6500863901       -1.0870612792        0.4866961384
 H          7.5081142102       -1.4670564392        1.0456869883
 H          6.2105277600       -1.9221203992       -0.0646512315
 C          5.6034889603       -0.5763668991        1.4853689186
 H          5.1802866704       -1.4367402091        2.0094832487
 H          6.0704243104        0.0831022109        2.2164301085
 H          6.4474549398        2.5935832407       -0.9805949518
 H          7.3892472901        3.3324211708        0.3154532880
 H          5.1270255602        3.4016304508        0.9958835485
 H          5.9101264404        2.1616126309        1.9904111284
 O          3.5238247300        2.0873271608       -0.1412346012
 C          2.4546849899        1.3832399107       -0.6653999009
 O          1.6460953998        2.0881262307       -1.3037691508
 H         -1.2579823402        0.4827086707       -1.0198369202
 C         -1.1337509900       -0.2087019992       -0.1968130902
 C          0.0677610600       -0.8884113092       -0.0576575504
 C          0.2199581602       -1.7623885392        1.0132950397
 C         -0.8079961796       -1.9409562991        1.9211542799
 C         -2.0037362896       -1.2587437091        1.7820524001
 C         -2.1664730698       -0.3842571592        0.7162269200
 N         -3.3721047399        0.3269474508        0.5769005702
 S         -4.8055575198       -0.5298723592        0.8377552406
 O         -5.0677111795       -0.5583863491        2.2549724106
 O         -4.7387602299       -1.8166072892        0.1824237006
 C         -5.9921448700        0.5212724808        0.0245510507
 C         -6.3697820802        0.2328706607       -1.2732267292
 C         -7.2784391503        1.0653028907       -1.9074871691
 C         -7.7890405402        2.1669785207       -1.2375516590
 C         -7.4000344200        2.4434823308        0.0648472409
 C         -6.4924863398        1.6149368708        0.7053323808
 H         -6.1689594596        1.7849890609        1.7189440807
 H         -7.8015171099        3.2996375508        0.5825339109
 H         -8.4971184503        2.8124229707       -1.7328279089
 H         -7.5847381805        0.8515511806       -2.9188691290
 H         -5.9548972503       -0.6399937593       -1.7514871392
 H         -3.4085387000        0.8515768508       -0.2863893498
 H         -2.8138648795       -1.3962033591        2.4803105302
 H         -0.6780262595       -2.6218809491        2.7491913999
 H          1.1546120302       -2.2876042692        1.1348200695
 C          1.1675042198       -0.6794192693       -1.0720542706
 H          0.7922970797        0.0250173407       -1.8267480105
 C          1.5186390497       -1.9794495293       -1.7696170906
 C          0.5959854295       -2.5061774894       -2.8253315704
 C          1.9334189994       -1.9482979694       -3.2083344606
 H          2.7037334593       -2.6294228594       -3.5372915308
 H          1.9632596693       -0.9861560494       -3.6993778207
 H         -0.2826614306       -1.9233991494       -3.0580368202
 H          0.4441998595       -3.5725568494       -2.8908074703
 H          2.0104946698       -2.6959855293       -1.1259928606
 O          3.3210930301       -1.9150918592        0.5773133691
