  62
        -98.93792713
 C         -2.1085630925       -1.0211417757        0.1729643498
 C         -3.4554435010       -1.0228831525        0.6189857167
 C         -4.3801620051       -0.1504425445       -0.1122727807
 C         -3.9225306811        0.5978391155       -1.1322205319
 C         -4.7469205698        1.5082930369       -2.0015112599
 C         -4.9789519370        2.9039002058       -1.4062881684
 C         -5.9561543657        2.9560173902       -0.2312048957
 H         -6.1919553119        4.0077722194       -0.0573775276
 H         -6.8845822485        2.4564701540       -0.5096475980
 C         -5.4127635234        2.3501594905        1.0703734432
 H         -4.3259616570        2.2614377320        1.0038390393
 H         -5.6285111174        3.0230295993        1.9033094560
 C         -5.9999734509        0.9847402013        1.4275966956
 H         -5.5189450995        0.6330087737        2.3437899960
 H         -7.0690855559        1.0861606319        1.6266653075
 C         -5.8051563077       -0.0887318069        0.3488306925
 H         -6.4693767877        0.1002194421       -0.4943725910
 H         -6.0565221538       -1.0598146030        0.7825059019
 H         -4.0154523129        3.3164494913       -1.0983683141
 H         -5.3710867286        3.5367343472       -2.2057733882
 H         -5.7075598455        1.0382317872       -2.2147890822
 H         -4.1990690183        1.6209192230       -2.9396585887
 O         -2.6171963303        0.5955935731       -1.5107847072
 C         -1.6727691796       -0.1928035887       -0.8620406012
 O         -0.5157574225       -0.0523894372       -1.3002555686
 O         -3.8630646999       -1.7233549342        1.5827357378
 C         -1.1328792342       -1.9318677812        0.8950246514
 C          0.1599387863       -1.2121431097        1.1853698810
 C          0.1179009347       -0.0391870783        1.9354501676
 C          1.2725924025        0.6572723868        2.2321883273
 C          2.5024445395        0.1948737302        1.7949392601
 C          2.5570512442       -0.9703398902        1.0442290650
 C          1.3940130135       -1.6680755673        0.7479175057
 H          1.4614747583       -2.5605191013        0.1448382052
 N          3.8220749434       -1.4409002209        0.6051118800
 S          4.4164510380       -0.7043212455       -0.7928724386
 O          3.4531470981       -0.7569145587       -1.8705187762
 O          5.6772849916       -1.3659419975       -1.0533970276
 C          4.7035331026        0.9782209604       -0.3019844513
 C          3.7341270857        1.9262966958       -0.5643246150
 C          3.9557443589        3.2335410419       -0.1598654563
 C          5.1330783535        3.5650086883        0.4942238133
 C          6.0964100069        2.5997893094        0.7476469134
 C          5.8818374514        1.2905297719        0.3475682891
 H          6.6016661935        0.5068247333        0.5163687279
 H          7.0104438268        2.8631719184        1.2550559677
 H          5.2998690228        4.5837031175        0.8071673010
 H          3.2069942265        3.9846093232       -0.3545717047
 H          2.8311615491        1.6222290216       -1.0712810059
 H          3.8187540548       -2.4382114093        0.4317753314
 H          3.4108077398        0.7204904786        2.0392839084
 H          1.2187279687        1.5646608675        2.8141223967
 H         -0.8424471060        0.3230594237        2.2773306064
 H         -1.6230995937       -2.1452513042        1.8602929253
 C         -0.9311499752       -3.2764171582        0.2100510962
 C         -1.9755998248       -3.8551633216       -0.6953697191
 C         -0.6702224065       -3.3874296313       -1.2617388750
 H          0.0358195294       -4.1295187626       -1.6068900537
 H         -0.6501377860       -2.4734765719       -1.8355612538
 H         -2.1636962881       -4.9171176492       -0.6452717588
 H         -2.8583839355       -3.2639200999       -0.8896933717
 H         -0.4117635586       -3.9839083070        0.8499718530
