  62
        -98.94459804
 C         -1.6262098196       -1.4597152705        0.1909542693
 C         -1.8011020697       -0.3899452009        1.1084033997
 C         -3.0357689901        0.3902218586        0.9756252904
 C         -3.9046876903        0.0942224286       -0.0082874694
 C         -5.2348156707        0.7560630881       -0.2490044188
 C         -5.1585497015        2.0685487584       -1.0407447083
 C         -4.5904437918        3.2602205884       -0.2693470081
 H         -4.7959463824        4.1538949485       -0.8617517877
 H         -5.1233734115        3.3671291378        0.6759627721
 C         -3.0804890417        3.1773077889       -0.0063268186
 H         -2.6433604515        2.4273543394       -0.6701075590
 H         -2.6155932022        4.1360434392       -0.2467713084
 C         -2.7078972911        2.8418144786        1.4377863512
 H         -1.6187465810        2.7926720290        1.5169354108
 H         -3.0530666812        3.6396905582        2.0991139916
 C         -3.2786153903        1.5103423581        1.9427293709
 H         -4.3463468303        1.6109166676        2.1393436213
 H         -2.7745500299        1.2547630380        2.8783464006
 H         -4.5649871917        1.8997475690       -1.9419797486
 H         -6.1749207417        2.3174645181       -1.3542675879
 H         -5.8340053905        0.0440941380       -0.8206926889
 H         -5.7290352305        0.9359793275        0.7065007314
 O         -3.6722567401       -0.8955578010       -0.9072023499
 C         -2.5416756498       -1.6987735205       -0.8352750105
 O         -2.4935451197       -2.5612296502       -1.7329772108
 O         -0.9693384496       -0.1158835609        2.0156711396
 C         -0.4079809891       -2.3432862200        0.4010628486
 C          0.7369382105       -1.9682449392       -0.5085758816
 C          0.6533949901       -2.1116332787       -1.8899241716
 C          1.7283635997       -1.7760253680       -2.6921420019
 C          2.8963322496       -1.2786722876       -2.1395013720
 C          2.9869884600       -1.1251911481       -0.7619215220
 C          1.9128729704       -1.4808093389        0.0427231082
 H          2.0003108307       -1.3575116792        1.1117823082
 N          4.1559820300       -0.6193691978       -0.1646365522
 S          4.0103509897        0.6425458917        0.9300775083
 O          5.3475269395        1.1837202923        1.0385823281
 O          3.4171421103        0.1699985610        2.1530232483
 C          2.9520892890        1.8053317116        0.0899643191
 C          1.5810500190        1.7382257909        0.2361729095
 C          0.7919816684        2.5833023308       -0.5291698900
 C          1.3762763878        3.4778163214       -1.4115002099
 C          2.7558888077        3.5401680121       -1.5367894303
 C          3.5510332583        2.6903435822       -0.7867230708
 H          4.6271840383        2.7044468727       -0.8502984811
 H          3.2100185872        4.2410265425       -2.2185034201
 H          0.7509314073        4.1290061114       -2.0016020094
 H         -0.2803762415        2.5295669703       -0.4310130097
 H          1.1405695396        1.0447584705        0.9359510093
 H          4.8984845297       -0.4236593272       -0.8214949324
 H          3.7322366793       -1.0134729070       -2.7688633522
 H          1.6539579394       -1.8961774376       -3.7623064319
 H         -0.2632763599       -2.4792314390       -2.3247413415
 H         -0.0844702089       -2.1384411502        1.4314678786
 C         -0.7168168885       -3.8239566801        0.2871842382
 C          0.1991208322       -4.8064571800        0.9502951375
 C         -1.1752679278       -4.5724645308        1.5007262080
 H         -1.9205115475       -5.3440746710        1.3787860380
 H         -1.2669926977       -4.0201475411        2.4249682983
 H          0.4006672224       -5.7413668797        0.4505591771
 H          1.0398106222       -4.4126514598        1.5020991174
 H         -1.1539052386       -4.1031154300       -0.6622929118
