  62
        -98.94042512
 C          2.1760696649        0.7390300471        0.1346689896
 C          3.0353152356        0.1832261100        1.1160767147
 C          3.8304407634       -0.9765558028        0.6978070836
 C          3.6590391953       -1.4915443296       -0.5329492700
 C          4.3724603304       -2.6888598448       -1.0997284622
 C          5.7516947799       -2.3701330027       -1.6928840531
 C          6.8443866570       -2.0601661907       -0.6689159690
 H          6.8795372767       -2.8560636212        0.0756725702
 H          7.7964783033       -2.0717533085       -1.2030839722
 C          6.6890051729       -0.7032737934        0.0320918642
 H          7.6515774279       -0.1871593214        0.0450562273
 H          5.9987276156       -0.0765823827       -0.5376162858
 C          6.2018158831       -0.7885434084        1.4787956452
 H          6.9503717049       -1.2996722418        2.0881827584
 H          6.0919803846        0.2284808268        1.8644982919
 C          4.8576358013       -1.5083170426        1.6508883822
 H          4.9852561853       -2.5820600731        1.5142604450
 H          4.4965142358       -1.3245392397        2.6659356037
 H          5.6494497014       -1.5292526045       -2.3827403631
 H          6.0648057928       -3.2404487735       -2.2741251408
 H          4.4743932851       -3.4536134537       -0.3290689048
 H          3.7366038793       -3.0802004692       -1.8967748529
 O          2.7675440945       -0.9778609488       -1.4198976098
 C          2.0179290288        0.1554786950       -1.1237400092
 O          1.2645000641        0.5124564689       -2.0468723558
 H         -0.2044946492       -0.0500335165        1.2488330789
 C         -0.7469359613        0.6470102222        0.6203985511
 C         -0.0855443754        1.7681061876        0.1323305882
 C         -0.7923352581        2.6547327390       -0.6680879520
 C         -2.1193269351        2.4118295930       -0.9784474176
 C         -2.7671904616        1.2864887886       -0.5051996305
 C         -2.0714530534        0.3938018626        0.3002664114
 N         -2.7096417694       -0.7677119684        0.7661145675
 S         -4.2397593909       -0.6445512432        1.4403093573
 O         -4.4373127902        0.6370424343        2.0772113860
 O         -4.3704936332       -1.8090636333        2.2890554244
 C         -5.3397772552       -0.8141753128        0.0509095685
 C         -5.1876851920       -1.9147218578       -0.7694576009
 C         -6.0425229722       -2.0672433282       -1.8492576533
 C         -7.0317003888       -1.1243696663       -2.0867667970
 C         -7.1742335780       -0.0273383915       -1.2511527284
 C         -6.3214271487        0.1318795027       -0.1698533072
 H         -6.3904244608        0.9718557121        0.5028891223
 H         -7.9441094261        0.7040961818       -1.4373988358
 H         -7.6949255468       -1.2457686463       -2.9286164296
 H         -5.9339706750       -2.9188057794       -2.5015687335
 H         -4.4079485186       -2.6250609116       -0.5500511936
 H         -2.1165417370       -1.3685856665        1.3191476211
 H         -3.7975847818        1.0913906230       -0.7533242483
 H         -2.6549949113        3.1065465214       -1.6072839856
 H         -0.3004604643        3.5260511260       -1.0675180295
 C          1.3589224799        1.9571986903        0.5244212271
 H          1.4049889287        1.9717333527        1.6271942392
 C          1.9478759017        3.2791278501        0.0545337203
 C          3.4160224604        3.4189685097       -0.2129788114
 C          2.4387590048        3.4848417699       -1.3460766939
 H          2.2640085837        4.4424873328       -1.8143865221
 H          2.3751158686        2.6486134586       -2.0241668524
 H          3.9097957074        4.3274480558        0.0980341067
 H          4.0295287178        2.5347532486       -0.1164235042
 H          1.4671780173        4.1278525696        0.5316233188
 O          3.1254649562        0.6302650457        2.2913103444
