  62
        -98.93970494
 C         -0.9197429609       -1.2164403934       -0.2636075239
 C         -1.9904063490       -1.2578335723        0.6651087583
 C         -2.9483571995       -0.1394789000        0.6415366887
 C         -2.7761114860        0.8513759771       -0.2524818887
 C         -3.5799338814        2.1065677312       -0.5225664217
 C         -4.9535139286        2.3061185661        0.1125322961
 C         -6.0438705993        1.3777221830       -0.4222794757
 H         -6.9453166450        1.5254612449        0.1764006503
 H         -6.2758937176        1.6715499968       -1.4492035603
 C         -5.6959254664       -0.1085982424       -0.4383711005
 H         -6.5463152946       -0.6464815093       -0.8665223482
 H         -4.8430347948       -0.2795807671       -1.0984266746
 C         -5.3972954945       -0.7239563723        0.9269718102
 H         -5.3138510989       -1.8055384768        0.7899386396
 H         -6.2322784421       -0.5372053913        1.6052198459
 C         -4.1010448241       -0.2411131233        1.5990468046
 H         -4.2538120456        0.7012745921        2.1188073893
 H         -3.8127295391       -0.9859554189        2.3463404705
 H         -5.2565536312        3.3318292841       -0.1147254366
 H         -4.8832115802        2.2311195359        1.1934680126
 H         -3.6784273383        2.1676033732       -1.6112090740
 H         -2.9372881931        2.9410888211       -0.2257779338
 O         -1.7152904968        0.8629374467       -1.1095437521
 C         -0.7673349295       -0.1473419763       -1.1442880431
 O          0.1211730795        0.0400739941       -1.9978328347
 O         -2.1467399178       -2.2032008706        1.4834688454
 C          0.0400889042       -2.3943688613       -0.2505781974
 C          1.2727045738       -2.0781639186        0.5614600534
 C          1.5010350731       -2.7313389148        1.7676833908
 C          2.6254326035       -2.4477510032        2.5215265883
 C          3.5350442734       -1.4994397780        2.0919126435
 C          3.3114600203       -0.8340613609        0.8903100558
 C          2.1894360501       -1.1291781448        0.1286843943
 H          2.0288867558       -0.6074879488       -0.8018085459
 N          4.2177379110        0.1362720707        0.4465788360
 S          3.7618595583        1.3872158627       -0.5537759943
 O          3.6589881787        0.9290913333       -1.9152911730
 O          4.7746249639        2.3988810402       -0.3194473382
 C          2.1974325665        2.0099449134        0.0379927630
 C          1.9047059485        1.9773329078        1.3868298178
 C          0.7154971597        2.5344172641        1.8276853248
 C         -0.1474982693        3.1292883903        0.9213142347
 C          0.1649312568        3.1631921267       -0.4280974467
 C          1.3461674798        2.5941972660       -0.8764525155
 H          1.6122648302        2.5762662515       -1.9208805497
 H         -0.5072482145        3.6184841092       -1.1378944677
 H         -1.0684524078        3.5680478879        1.2731315299
 H          0.4660695263        2.5035607604        2.8762530037
 H          2.5903864715        1.5179359359        2.0798646417
 H          4.9286878568        0.4103254123        1.1079483176
 H          4.4125931919       -1.2716591195        2.6773954745
 H          2.7925815412       -2.9646950499        3.4540238987
 H          0.7808499223       -3.4564173366        2.1168526419
 H         -0.5019996142       -3.1954041333        0.2708198519
 C          0.4102083136       -2.8937483805       -1.6327544859
 C          0.8821579118       -4.3073376146       -1.7882209893
 C         -0.4665636506       -3.9058767595       -2.3042159059
 H         -0.6131858089       -3.8324082943       -3.3714043406
 H         -1.3398629800       -4.2459326530       -1.7665392918
 H          1.6664019589       -4.5116726463       -2.5009233916
 H          0.9220775514       -4.9221312999       -0.9016905046
 H          0.8670830186       -2.1392115555       -2.2600432316
