  62
        -98.94281687
 C         -1.8130297629       -0.8647215761        0.3039442222
 C         -3.1612168601       -1.1663121765        0.6258342116
 C         -4.0760995115       -0.0218183170        0.7283498253
 C         -3.5905751932        1.2225237929        0.5688064946
 C         -4.4168771066        2.4749162137        0.5887728600
 C         -4.9019562944        2.8413603983       -0.8209191176
 C         -5.5410666962        1.6766041226       -1.5773018243
 H         -5.8717327463        2.0598532021       -2.5451121192
 H         -4.7792775615        0.9192405115       -1.7770636322
 C         -6.7272369883        1.0234540126       -0.8540537204
 H         -7.5329570625        0.8669980919       -1.5743784629
 H         -7.1073564530        1.6958152638       -0.0840785955
 C         -6.4184395134       -0.3385542342       -0.2293556526
 H         -5.9528168961       -0.9870201271       -0.9762406233
 H         -7.3651835097       -0.8024139815        0.0599096575
 C         -5.5219250378       -0.3138247433        1.0150510634
 H         -5.9223897248        0.3949796799        1.7426465180
 H         -5.5432215421       -1.3129777383        1.4601253124
 H         -4.0467937199        3.1967794873       -1.4005301054
 H         -5.6194218776        3.6596368355       -0.7373891346
 H         -3.8000006787        3.2884036092        0.9739937766
 H         -5.2681649127        2.3319562686        1.2514947208
 O         -2.2809684477        1.4774910838        0.3258321575
 C         -1.3592570789        0.4481821122        0.1778728082
 O         -0.2006761165        0.8425378479       -0.0461137359
 O         -3.5774841935       -2.3389319991        0.8232472721
 C         -0.8502684470       -2.0275094106        0.1505788805
 C          0.4351799738       -1.7599093001        0.8924053108
 C          0.3797317276       -1.5670620880        2.2712037985
 C          1.5279383684       -1.3277377165        2.9994982929
 C          2.7591019233       -1.2793211427        2.3685738952
 C          2.8275151294       -1.4742157545        0.9949733124
 C          1.6702836322       -1.7166198921        0.2652124752
 H          1.7528842390       -1.8378660942       -0.8014682931
 N          4.0713330476       -1.4730127011        0.3370795018
 S          4.3637295452       -0.4878965251       -0.9832985334
 O          3.4024061698       -0.7526079338       -2.0208877985
 O          5.7493951828       -0.7373909020       -1.3190836598
 C          4.2054556998        1.1768170186       -0.3609346118
 C          5.3572776567        1.8973738594       -0.1070449784
 C          5.2503984222        3.1711693070        0.4261255769
 C          3.9978216063        3.6978011714        0.7045901421
 C          2.8535507876        2.9588829390        0.4483701144
 C          2.9507224026        1.6843566125       -0.0899794461
 H          2.0659148837        1.1018203328       -0.2916732782
 H          1.8739760626        3.3560010119        0.6628176887
 H          3.9117565112        4.6885459861        1.1226730244
 H          6.1400567667        3.7470068444        0.6246693313
 H          6.3086645676        1.4474190122       -0.3409820161
 H          4.8610215549       -1.4207166568        0.9655620019
 H          3.6594718752       -1.0947770313        2.9350199343
 H          1.4664443512       -1.1758267779        4.0665750907
 H         -0.5830943796       -1.6024380024        2.7632385885
 H         -1.3573753657       -2.8697349615        0.6518463148
 C         -0.6272260820       -2.4551091275       -1.2924608944
 C         -1.6817913800       -2.2519104158       -2.3378133761
 C         -0.4081614203       -1.4657723371       -2.3957784577
 H          0.3181608454       -1.7013952675       -3.1602648597
 H         -0.4353768749       -0.4179137234       -2.1408897477
 H         -1.8410585021       -3.0336680054       -3.0652244820
 H         -2.5856742055       -1.7373775747       -2.0449513541
 H         -0.0647744966       -3.3820771034       -1.3569287274
