  62
        -98.94040463
 C          2.0937926795        1.0394483373        0.0522571564
 C          2.3708211899       -0.3463676791        0.1632507651
 C          3.7170793888       -0.6887909876        0.6479776097
 C          4.5778526240        0.2824073536        0.9979973328
 C          5.9749430835        0.0863920073        1.5208458720
 C          7.0286033279       -0.1168121259        0.4234211147
 C          6.9813297320       -1.4731327395       -0.2815219039
 H          7.9001787200       -1.5630514715       -0.8644028030
 H          6.9897536010       -2.2692468797        0.4636747332
 C          5.7816823614       -1.6580939741       -1.2213085983
 H          5.3433500074       -0.6835140914       -1.4485872227
 H          6.1226710346       -2.0832750473       -2.1679919629
 C          4.6883163206       -2.5788906577       -0.6790379299
 H          5.0820569666       -3.5921173658       -0.5718878445
 H          3.8739887362       -2.6114138840       -1.4076369727
 C          4.1017210032       -2.1374281310        0.6683325684
 H          4.8137932561       -2.3316798546        1.4701285767
 H          3.1954418256       -2.7188704260        0.8559592982
 H          8.0102241673       -0.0086601584        0.8904951293
 H          6.9227976813        0.6814165857       -0.3149967618
 H          6.2279434847        0.9911050356        2.0779154468
 H          5.9943585090       -0.7606635181        2.2071944496
 O          4.2529050579        1.6009276316        0.9321229219
 C          3.0190451313        2.0085019111        0.4523276636
 O          2.8629889746        3.2459352643        0.4398803518
 O          1.5587450341       -1.2619940022       -0.1248805226
 C          0.7581632153        1.5613672235       -0.4526255687
 C         -0.3713870146        0.8358009215        0.2342851498
 C         -0.6340768492        1.1152023109        1.5720865877
 C         -1.6434917358        0.4555367470        2.2476341951
 C         -2.4125019577       -0.4971930179        1.6032413371
 C         -2.1582422419       -0.7824361325        0.2682950295
 C         -1.1529686530       -0.1077847267       -0.4127516984
 H         -0.9497357825       -0.3569151893       -1.4424159386
 N         -2.9294968410       -1.7519422174       -0.3901276888
 S         -4.5786013426       -1.7859669651       -0.1387201983
 O         -4.8750469012       -2.4398938191        1.1118043953
 O         -5.1286287407       -2.4094810516       -1.3220635748
 C         -5.0688748261       -0.0719652316       -0.0527916062
 C         -5.6458097397        0.4248361936        1.0978132637
 C         -5.9899428272        1.7662927993        1.1503741433
 C         -5.7490277157        2.5841261561        0.0576809068
 C         -5.1715550578        2.0693057644       -1.0932004441
 C         -4.8269613248        0.7290152940       -1.1515308522
 H         -4.3831296804        0.2960701995       -2.0335189453
 H         -4.9863476493        2.7077142205       -1.9421388729
 H         -6.0132646475        3.6289361493        0.1013851119
 H         -6.4417565008        2.1685350837        2.0427569483
 H         -5.8143450178       -0.2455286626        1.9248586193
 H         -2.6843315499       -1.8951778543       -1.3578000948
 H         -3.1884188977       -1.0382845070        2.1200717843
 H         -1.8311090619        0.6797073086        3.2867612196
 H         -0.0252123185        1.8508473199        2.0801079061
 H          0.7275566132        2.6140326755       -0.1287577664
 C          0.6263964636        1.5728258558       -1.9688151385
 C          1.8061483326        1.9037632875       -2.8321924972
 C          1.2302429388        0.5211964270       -2.8483262364
 H          0.6794275596        0.2082355448       -3.7238412961
 H          1.7843248788       -0.2747553809       -2.3767394298
 H          1.6541860480        2.5373451684       -3.6929559521
 H          2.7550678253        2.0583826205       -2.3391537478
 H         -0.3292567255        1.9804863619       -2.2845760146
