  62
        -98.93902260
 C          1.9846544147        1.5676324951       -0.2663927452
 C          2.8422959946        1.2237658204        0.8123207465
 C          4.0037816744        0.3911723477        0.4896323628
 C          4.2119946205        0.0122682365       -0.7838503871
 C          5.3550935681       -0.8300955376       -1.2821362756
 C          5.1287890454       -2.3401663200       -1.1266377875
 C          5.2130659482       -2.8666191351        0.3067648475
 H          5.2558347312       -3.9558729514        0.2451881055
 H          6.1446431588       -2.5290406638        0.7620268765
 C          4.0281339678       -2.4694780144        1.1986740405
 H          3.6794050385       -3.3445968069        1.7517760365
 H          3.1955674912       -2.1368864627        0.5735836819
 C          4.3432663718       -1.3805658455        2.2246635587
 H          3.4246422880       -1.1491637663        2.7699507256
 H          5.0773808180       -1.7547839301        2.9416285316
 C          4.8737184433       -0.0753962195        1.6172601005
 H          4.8557854838        0.6954190261        2.3914837394
 H          5.9004006538       -0.2076365894        1.2766881159
 H          5.8912000208       -2.8470580244       -1.7228305528
 H          4.1538213332       -2.5925794432       -1.5509159159
 H          5.4663496970       -0.6062036562       -2.3453017520
 H          6.2728597443       -0.5432231170       -0.7679364952
 O          3.3874853398        0.3844054648       -1.7960134887
 C          2.2388447562        1.1447163591       -1.5711712431
 O          1.5899444875        1.3652371737       -2.6088614774
 H         -0.0856798512       -0.1233020101       -0.5715950870
 C         -0.5316598755        0.2206561529        0.3508286793
 C         -0.2157254545        1.4759425025        0.8525334885
 C         -0.7975966818        1.8837431502        2.0477689695
 C         -1.6694929726        1.0545997943        2.7299497019
 C         -1.9948778634       -0.1884482432        2.2181846454
 C         -1.4231497861       -0.6039033787        1.0215140000
 N         -1.7538088947       -1.8550907456        0.4512801722
 S         -2.7234777535       -1.7760756055       -0.9144994588
 O         -3.0246979903       -3.1476688869       -1.2585267514
 O         -2.0741373207       -0.9777816762       -1.9197982720
 C         -4.2031638187       -0.9611774293       -0.3369696224
 C         -5.2693126993       -1.7291330653        0.0893698707
 C         -6.3856220729       -1.0956546345        0.6116111464
 C         -6.4112713693        0.2874541729        0.7091156338
 C         -5.3317084592        1.0441440237        0.2796946178
 C         -4.2141389222        0.4168058006       -0.2481078017
 H         -3.3597886692        0.9732734847       -0.5983665356
 H         -5.3514300046        2.1194252260        0.3538810104
 H         -7.2782985175        0.7798030835        1.1202659784
 H         -7.2280408867       -1.6812519590        0.9427724677
 H         -5.2057213180       -2.8009071084       -0.0088957320
 H         -2.1703135408       -2.4988148706        1.1110368993
 H         -2.6782812340       -0.8393231368        2.7428324272
 H         -2.1029097864        1.3798375081        3.6629559710
 H         -0.5416386318        2.8517464833        2.4520580991
 C          0.7562896989        2.3718927203        0.1246976082
 H          1.1155517086        3.1132067214        0.8582556514
 C          0.1010761379        3.1478356736       -1.0048955166
 C         -1.0360522941        2.6170167967       -1.8190021031
 C         -1.2775125821        3.7156550534       -0.8301342894
 H         -1.4764857934        4.7081237628       -1.2048917300
 H         -1.8074476331        3.4682959380        0.0776344057
 H         -1.3963454178        1.6205485580       -1.6132450574
 H         -1.0405119326        2.8503571727       -2.8729468875
 H          0.8202712793        3.7604045209       -1.5385725628
 O          2.6409064470        1.6083252972        1.9951528646
