  62
        -98.93701305
 C         -2.5847844940       -1.3399923297       -0.1119837993
 C         -2.2381516488       -0.0953190170       -0.6949140649
 C         -3.3603237375        0.8194753496       -0.9659306723
 C         -4.6152261465        0.4418847037       -0.6654495827
 C         -5.8383965953        1.2919293465       -0.8475834636
 C         -6.1448780307        2.1015842964        0.4199377089
 C         -4.9358727867        2.8498674363        0.9817407894
 H         -5.2772861000        3.4121112434        1.8536478987
 H         -4.1989482848        2.1253120827        1.3367026056
 C         -4.2639284271        3.8072635023       -0.0124105598
 H         -4.9463381060        4.0269711719       -0.8343290652
 H         -4.0550684031        4.7504667924        0.4968111684
 C         -2.9344094628        3.3047906388       -0.5788995349
 H         -2.4451515814        4.1395668078       -1.0882118038
 H         -2.2785747153        2.9951893449        0.2395796322
 C         -3.0295492396        2.1492244402       -1.5831818320
 H         -3.7471647125        2.4006194798       -2.3669733046
 H         -2.0438680733        2.0303739567       -2.0427613602
 H         -6.5106066615        1.4167942451        1.1885439405
 H         -6.9408138724        2.8126702562        0.1916043991
 H         -5.6870487769        1.9615558856       -1.6918684521
 H         -6.6838204530        0.6358864637       -1.0617669812
 O         -4.9092993174       -0.7594351568       -0.1064094265
 C         -3.9075390372       -1.6625487923        0.2061885021
 O         -4.3155388548       -2.7044700350        0.7568613327
 H          1.0398707573       -1.8387429039       -0.5304108297
 C          0.8391907502       -1.5044442303        0.4754531100
 C         -0.4168509614       -1.6995398750        1.0242411948
 C         -0.6666970799       -1.2203854336        2.3071267358
 C          0.3195358638       -0.5665903255        3.0203973235
 C          1.5757083727       -0.3770862637        2.4710553636
 C          1.8313277360       -0.8412998779        1.1884543891
 N          3.1064259306       -0.6724750406        0.6177998465
 S          3.9525655435        0.7536280346        0.9309675678
 O          4.5299926420        0.6584912819        2.2494761171
 O          3.1192202244        1.9103448206        0.6914621909
 C          5.2407145732        0.6442791527       -0.2956021620
 C          6.3894202296       -0.0631741008        0.0038578638
 C          7.3803213325       -0.1698705790       -0.9590143075
 C          7.2069892908        0.4289327719       -2.1979816362
 C          6.0488243382        1.1364081947       -2.4836739451
 C          5.0531740050        1.2458874796       -1.5256018094
 H          4.1404883875        1.7932242519       -1.7013338104
 H          5.9176013094        1.6028875114       -3.4468256443
 H          7.9800308174        0.3463141956       -2.9455826171
 H          8.2829880349       -0.7172762034       -0.7405663858
 H          6.4830947282       -0.5028571085        0.9829803892
 H          3.1010161951       -0.8725056192       -0.3733105102
 H          2.3503973864        0.1407297027        3.0131616799
 H          0.1107100147       -0.1959412664        4.0131693070
 H         -1.6518981274       -1.3571589066        2.7333787319
 C         -1.5373689266       -2.3730929233        0.2716559322
 H         -2.0530412958       -3.0483084777        0.9736805926
 C         -1.0532157950       -3.2408024474       -0.8802588372
 C         -1.9983543181       -3.6618894687       -1.9648318144
 C         -0.8729541703       -2.7233050266       -2.2744571672
 H         -0.0416353909       -3.0989678816       -2.8535449703
 H         -1.1015616132       -1.6862116242       -2.4609822411
 H         -1.9421281228       -4.6756352785       -2.3316343499
 H         -3.0025648333       -3.2646882170       -1.9304653094
 H         -0.3424659850       -3.9897681972       -0.5437544475
 O         -1.0639277639        0.2484123090       -0.9889510963
