  62
        -98.94092638
 C          2.1593792503        1.0353394702        0.6281217807
 C          2.0914882903        0.1421429308       -0.4711359298
 C          2.9008606502       -1.0797602493       -0.3488694104
 C          3.5831248401       -1.3275000700        0.7824235595
 C          4.4350429900       -2.5361632802        1.0603042890
 C          5.8622181501       -2.4356665900        0.5040748892
 C          5.9802217802       -2.5623804792       -1.0153603409
 H          7.0395343902       -2.6953538892       -1.2436127809
 H          5.4605841902       -3.4627075890       -1.3447390714
 C          5.4560529004       -1.3487120788       -1.7956269003
 H          5.3692930903       -0.4927840691       -1.1223808499
 H          6.1759142304       -1.0747876084       -2.5699867901
 C          4.1108121104       -1.5727184583       -2.4866623105
 H          4.2171593004       -2.3396213879       -3.2569670609
 H          3.8171440605       -0.6415388480       -2.9778895901
 C          2.9770161803       -1.9870693687       -1.5393591509
 H          2.0282314903       -1.9071930484       -2.0764479809
 H          3.1099414602       -3.0212793189       -1.2216809614
 H          6.4455035900       -3.2386983703        0.9604382888
 H          6.2959877401       -1.4859261902        0.8255390197
 H          3.9479656500       -3.4262775300        0.6604982585
 H          4.4942064399       -2.6313329008        2.1468371589
 O          3.5524199901       -0.4853220306        1.8504116000
 C          2.8526971102        0.7099031095        1.7961625005
 O          2.9121542101        1.3811922390        2.8469060009
 O          1.4038898104        0.3399584014       -1.5042422098
 C          1.3949170404        2.3494192002        0.6393138413
 C         -0.0277089396        2.1018536906        0.2025667010
 C         -0.5921494094        2.6392333212       -0.9457153688
 C         -1.8955773994        2.3298958815       -1.2933570590
 C         -2.6620796896        1.4894435211       -0.5068242996
 C         -2.1067987297        0.9468388205        0.6446712002
 C         -0.8030012997        1.2604414002        0.9916847305
 H         -0.3649896298        0.8280860897        1.8846630303
 N         -2.8843939799        0.0914700601        1.4551171197
 S         -3.4058326099       -1.3404262495        0.7389772389
 O         -3.6772800401       -2.2348630600        1.8445017584
 O         -2.4666723698       -1.8145679790       -0.2519436613
 C         -4.9438305698       -0.8908198890       -0.0356473710
 C         -5.0958884297       -1.0443705082       -1.3996117311
 C         -6.3029117296       -0.6901762778       -1.9823375111
 C         -7.3295690496       -0.1919775282       -1.1947278609
 C         -7.1609806997       -0.0461220089        0.1744031392
 C         -5.9576300398       -0.3995295393        0.7636690691
 H         -5.7849770099       -0.3067571899        1.8228375792
 H         -7.9618695698        0.3417793808        0.7828935993
 H         -8.2668901896        0.0841781221       -1.6512039308
 H         -6.4354042995       -0.8027663072       -3.0463867611
 H         -4.2655862396       -1.4282523180       -1.9707343313
 H         -2.4378202600       -0.1261383604        2.3355263296
 H         -3.6767632196        1.2468037513       -0.7772614198
 H         -2.3198354193        2.7462915020       -2.1942089089
 H         -0.0004569693        3.2739459215       -1.5844882284
 H          1.3713507503        2.6525575297        1.6992858214
 C          2.0755851005        3.4802128606       -0.1163903981
 C          3.5708735305        3.5596204905       -0.1870387579
 C          2.7760751906        3.2770705212       -1.4245758381
 H          2.6994978708        4.0552798116       -2.1699166477
 H          2.7937637406        2.2805216614       -1.8353381186
 H          4.0402588806        4.5262066204       -0.0825196473
 H          4.1335827404        2.7510304302        0.2573603718
 H          1.5511922406        4.4218726406        0.0139823224
