  62
        -98.94059098
 C         -1.7988011978       -1.3623471908        0.4821340701
 C         -1.9025221684       -0.1083689311        1.1382017406
 C         -3.1852236487        0.5913198783        1.0102255809
 C         -4.1698085885        0.0418526281        0.2761262907
 C         -5.5512383687        0.6051179175        0.0785741310
 C         -5.6470450793        1.6628066979       -1.0292966886
 C         -5.0329780499        3.0203769681       -0.6862905481
 H         -5.3616056103        3.7236560582       -1.4540350678
 H         -5.4339495901        3.3681484475        0.2663869421
 C         -3.4989741699        3.0266157788       -0.6347621981
 H         -3.1211385003        3.8978053692       -1.1744540678
 H         -3.1131521595        2.1407713592       -1.1445149785
 C         -2.9145751299        3.0788923285        0.7762844919
 H         -1.8253835499        3.0542726191        0.6973084819
 H         -3.1945864704        4.0193682282        1.2560019123
 C         -3.3434947094        1.9206719580        1.6856690015
 H         -2.6998564493        1.9218260479        2.5691622315
 H         -4.3759585694        2.0588731973        2.0072162415
 H         -6.7075081393        1.8120031075       -1.2451782485
 H         -5.1768740891        1.2668010085       -1.9322517188
 H         -6.1921440583       -0.2366149127       -0.1927370494
 H         -5.9117101089        1.0267350670        1.0175490411
 O         -4.0192630979       -1.1405546516       -0.3732252897
 C         -2.8373511375       -1.8716514010       -0.2997417601
 O         -2.8634135771       -2.9222566608       -0.9644469205
 H          2.0863897923       -1.4520444492        1.0534898400
 C          1.8152676823       -1.4667655589        0.0086972400
 C          0.5192938524       -1.7828580394       -0.3706296301
 C          0.1979680524       -1.7846938590       -1.7245816001
 C          1.1592626622       -1.4804647881       -2.6709497400
 C          2.4495594621       -1.1561993177       -2.2879118298
 C          2.7796879621       -1.1473129380       -0.9382343698
 N          4.0835890619       -0.8352330176       -0.5170049597
 S          4.3128132814        0.2926757220        0.7007525107
 O          5.7278588513        0.5870187727        0.6572626608
 O          3.8079943017       -0.2206187687        1.9471496005
 C          3.3851803807        1.7157215518        0.1595149113
 C          4.0384425203        2.6467362424       -0.6261750484
 C          3.3281164297        3.7243721123       -1.1277070879
 C          1.9753693897        3.8466528515       -0.8471562479
 C          1.3363790501        2.9030253409       -0.0593033182
 C          2.0409370907        1.8250579610        0.4537081413
 H          1.5503474710        1.0903113206        1.0724966311
 H          0.2847479501        2.9883090903        0.1648879418
 H          1.4158541893        4.6807232714       -1.2404561675
 H          3.8269231294        4.4613038628       -1.7362731676
 H          5.0918461303        2.5147126930       -0.8138548684
 H          4.7298964519       -0.6642029170       -1.2744627697
 H          3.1970385820       -0.9160108570       -3.0285935898
 H          0.9001642322       -1.4913097378       -3.7188694500
 H         -0.8078687875       -2.0392334093       -2.0238092601
 C         -0.5024745474       -2.1259195103        0.6825721198
 H         -0.1078035776       -1.7591309605        1.6447399600
 C         -0.7074519667       -3.6279787404        0.8283350792
 C         -0.2819447162       -4.6259335898       -0.2019247812
 C          0.4686276338       -4.5220245400        1.0896318388
 H          0.3653034441       -5.3131184703        1.8168667385
 H          1.4501276135       -4.0718057395        1.0640356690
 H         -0.9240749558       -5.4775334501       -0.3662047115
 H          0.1935231336       -4.2627016092       -1.0990831510
 H         -1.6206577066       -3.8585215011        1.3679999991
 O         -0.9658262286        0.3921766291        1.8175031308
