  62
        -98.94313386
 C         -1.4796852500       -1.4581683102       -0.2816167299
 C         -2.8294454002       -1.4044916399        0.1583258398
 C         -3.5849540899       -0.1997707798       -0.2003489106
 C         -2.9838449296        0.7776616200       -0.9020129406
 C         -3.6164755492        2.0679700400       -1.3476436110
 C         -3.6042389594        3.1672269102       -0.2766535712
 C         -4.5843740397        2.9583962205        0.8783376686
 H         -4.6320601197        3.8977671106        1.4329097384
 H         -5.5809329696        2.7665960806        0.4792166983
 C         -4.1903579402        1.8340421706        1.8466243789
 H         -3.1356524902        1.5849858804        1.7079833192
 H         -4.3038512904        2.1831757107        2.8754896288
 C         -5.0202772803        0.5575152807        1.7090456288
 H         -6.0595875404        0.7648918009        1.9738246185
 H         -4.6340844006       -0.1800199293        2.4173548491
 C         -4.9887603100       -0.0697352596        0.3089493890
 H         -5.4154200902       -1.0737599695        0.3741636290
 H         -5.5907636597        0.5209202604       -0.3814654213
 H         -2.5911571795        3.2574493401        0.1213589691
 H         -3.8550255691        4.1085016601       -0.7711633514
 H         -3.0412149290        2.4156630698       -2.2082457509
 H         -4.6419642092        1.8830339001       -1.6686575913
 O         -1.6944147595        0.6892934197       -1.3129977903
 C         -0.9015757397       -0.4096449003       -1.0032405299
 O          0.2586034104       -0.3146661406       -1.4407618896
 O         -3.3776103805       -2.3234570697        0.8230970697
 C         -0.6566917203       -2.6566280402        0.1654896706
 C          0.5546051695       -2.1350214603        0.8922930308
 C          0.4526076592       -1.7688856400        2.2304482407
 C          1.5176550991       -1.1753895201        2.8830023209
 C          2.6910857193       -0.9007076304        2.2023448012
 C          2.7931319297       -1.2462051306        0.8611546913
 C          1.7458070897       -1.8966875905        0.2243424611
 H          1.8388368300       -2.1696003207       -0.8148253988
 N          3.9596294399       -0.9110072209        0.1415343716
 S          4.3755850202        0.7129662191        0.1048046314
 O          5.3403899805        0.8312994088       -0.9660487983
 O          4.8404710699        1.0997062992        1.4148770515
 C          2.8961841704        1.6231078792       -0.3001815391
 C          2.6194628408        1.8790620290       -1.6270578592
 C          1.4622471210        2.5661106292       -1.9509028297
 C          0.5983708308        2.9732235094       -0.9476116300
 C          0.8874270704        2.7032763996        0.3801217201
 C          2.0481777702        2.0242599195        0.7117161206
 H          2.3071538899        1.8045092596        1.7345913007
 H          0.2098933502        3.0139594698        1.1606497799
 H         -0.3099833991        3.4961872895       -1.2040772303
 H          1.2291569713        2.7686704790       -2.9839896798
 H          3.3149078610        1.5430980688       -2.3795275690
 H          3.9394805701       -1.2607624110       -0.8066260384
 H          3.5192061493       -0.4039958604        2.6819030014
 H          1.4297300289       -0.9085233599        3.9254454309
 H         -0.4783147610       -1.9440051798        2.7518618405
 H         -1.3024692406       -3.1742290200        0.8923592005
 C         -0.3211181902       -3.6736699304       -0.9135601692
 C         -1.3649705400       -4.0881745504       -1.9066068294
 C         -0.1548025197       -3.3325882507       -2.3626067392
 H          0.5985471703       -3.8670171109       -2.9236497489
 H         -0.2704497295       -2.3036878307       -2.6625333594
 H         -1.4518286201       -5.1329433105       -2.1641701493
 H         -2.3091604499       -3.5638479303       -1.8758408698
 H          0.3195742296       -4.4621814805       -0.5290505389
