  62
        -98.94430559
 C         -2.3770598139       -1.1209658161        0.2039225347
 C         -2.3978562026        0.1908766418       -0.3285666560
 C         -3.4291210460        1.0867007003        0.2172196618
 C         -4.2514914016        0.6399175744        1.1835904052
 C         -5.3793308482        1.4263114541        1.7848669026
 C         -6.6899907072        1.1901852230        1.0210691138
 C         -6.5577000576        1.3401937336       -0.4944497133
 H         -5.9116333644        0.5464564703       -0.8762819385
 H         -7.5490719581        1.1827355830       -0.9245881297
 C         -6.0120638365        2.6999687055       -0.9524205958
 H         -6.6164025449        3.0564582284       -1.7892078078
 H         -6.1109137605        3.4294245365       -0.1477915769
 C         -4.5598910444        2.6714272101       -1.4330896068
 H         -4.4348879624        1.8787380210       -2.1751034426
 H         -4.3470426371        3.6214154793       -1.9307578896
 C         -3.4993705053        2.4803474037       -0.3411115388
 H         -2.5197599913        2.6735897450       -0.7889729681
 H         -3.6578113141        3.2080617493        0.4575399493
 H         -7.0375993629        0.1770511249        1.2355443253
 H         -7.4376821471        1.8923313419        1.3941913568
 H         -5.5089083648        1.1044663353        2.8195009823
 H         -5.1245058537        2.4842589854        1.7732499200
 O         -4.1762914373       -0.6145057497        1.6960329943
 C         -3.2450851079       -1.5218760707        1.2224277586
 O         -3.2874843276       -2.6374719854        1.7781063527
 O         -1.6086295988        0.6015309914       -1.2205452792
 C         -1.3671740832       -2.1508998706       -0.2786898709
 C          0.0087371864       -1.7008754411        0.1478343896
 C          0.3989315693       -1.8915798121        1.4709263387
 C          1.6282497995       -1.4436180261        1.9146620362
 C          2.4914597289       -0.7887030762        1.0524108193
 C          2.1031577957       -0.5762578843       -0.2626540745
 C          0.8748147293       -1.0459837288       -0.7120491316
 H          0.5823773297       -0.8645526706       -1.7338676957
 N          2.9662796339        0.0897763574       -1.1474139810
 S          3.7845443669        1.4551082546       -0.6207671591
 O          3.0499706324        2.1705527499        0.3968367124
 O          4.0990088695        2.1919217361       -1.8256081704
 C          5.2943164114        0.7982952517        0.0608930544
 C          5.6998844138        1.1743329626        1.3263942108
 C          6.8831499986        0.6589740994        1.8325776827
 C          7.6370045407       -0.2177052351        1.0676901410
 C          7.2178359786       -0.5828664673       -0.2029917197
 C          6.0367049717       -0.0703468470       -0.7150603719
 H          5.6781606174       -0.3273509858       -1.6976539403
 H          7.8066765978       -1.2648473403       -0.7950006537
 H          8.5563290388       -0.6186214041        1.4644227486
 H          7.2104446564        0.9426308942        2.8199714463
 H          5.0783010768        1.8538665309        1.8878868381
 H          2.5671939876        0.2398537891       -2.0628971556
 H          3.4467072375       -0.4267167349        1.3954491895
 H          1.9192305414       -1.6024616431        2.9419890089
 H         -0.2838912637       -2.3862954043        2.1481581616
 H         -1.6028883944       -3.0772093340        0.2619165927
 C         -1.4990719157       -2.4087337739       -1.7649972895
 C         -0.8594514926       -3.6271631920       -2.3577606823
 C         -2.3508376906       -3.5474266431       -2.2356318241
 H         -2.9365691735       -3.4151365845       -3.1330800845
 H         -2.8367386198       -4.1515965015       -1.4833813215
 H         -0.4198277379       -3.5538104998       -3.3407407234
 H         -0.3307571979       -4.2865073983       -1.6862900439
 H         -1.5165831379       -1.5029517664       -2.3584725894
