  62
        -98.94520629
 C         -1.0186798309       -1.3114138093        0.1648137904
 C         -1.3964999700       -0.0862958992        0.7659473907
 C         -2.4130198797        0.6945373515        0.0483827911
 C         -2.8599502203        0.2542990520       -1.1418611489
 C         -3.9190215001        0.9289718128       -1.9639469885
 C         -5.3137843003        0.3823441335       -1.6286926083
 C         -5.6145118100        0.3382012535       -0.1305574982
 H         -6.6353618002       -0.0323514659       -0.0142371880
 H         -4.9529025703       -0.3899878070        0.3442705015
 C         -5.4761241390        1.6895953933        0.5841393720
 H         -5.4993315687        2.4987652734       -0.1464995879
 H         -6.3350234487        1.8251610037        1.2448202022
 C         -4.2221568187        1.8233130224        1.4504172317
 H         -4.1470358490        0.9625414122        2.1196815515
 H         -4.3353556080        2.7134906724        2.0747877519
 C         -2.8961362788        1.9634267817        0.6914709114
 H         -2.9800391585        2.7611566819       -0.0484358485
 H         -2.1251811285        2.2398275611        1.4153972813
 H         -6.0581847601        1.0010435741       -2.1332070680
 H         -5.3923328610       -0.6332611864       -2.0234971984
 H         -3.8848998194        2.0012930627       -1.7833297784
 H         -3.7085553304        0.7387388328       -3.0176303386
 O         -2.4240110611       -0.8941362982       -1.7187499192
 C         -1.5081825814       -1.7152415988       -1.0777245395
 O         -1.2204242322       -2.7485267089       -1.7099829898
 H          1.5289626799       -0.1059479809        0.2770748700
 C          1.9174504292       -1.0016165010       -0.1867111803
 C          1.2634663685       -2.2102271107        0.0230351397
 C          1.7707470177       -3.3557084309       -0.5744992906
 C          2.8989022976       -3.2829968614       -1.3734122509
 C          3.5504937782       -2.0803219618       -1.5742695208
 C          3.0556047491       -0.9286483316       -0.9716539405
 N          3.6788076498        0.3145155481       -1.1609305005
 S          3.8132975807        1.3652311978        0.1346120996
 O          4.8836393611        2.2653870872       -0.2432712205
 O          4.0038414506        0.6527073375        1.3768916995
 C          2.2898787213        2.2832558287        0.1638295702
 C          1.7335879512        2.6959521092       -1.0304165896
 C          0.5858553417        3.4710067799       -0.9987254992
 C          0.0251305722        3.8280291900        0.2178982010
 C          0.5942194122        3.4026287895        1.4075102108
 C          1.7376801218        2.6214252788        1.3827412204
 H          2.2033025818        2.2571359184        2.2846613202
 H          0.1513524026        3.6691950296        2.3537653909
 H         -0.8629381174        4.4396204106        0.2402047013
 H          0.1331888217        3.7957102103       -1.9219245691
 H          2.1981643608        2.4019585691       -1.9571236298
 H          4.5255117396        0.2883025177       -1.7105512807
 H          4.4326921581       -2.0279053922       -2.1942878211
 H          3.2792587069       -4.1780370616       -1.8421413011
 H          1.2764683072       -4.3015330006       -0.4279050707
 C          0.0123781788       -2.1806621401        0.8648457000
 H          0.2504782093       -1.6557118103        1.8015320000
 C         -0.5439820620       -3.5474431798        1.1986211999
 C          0.1085743878       -4.3720324303        2.2665584096
 C         -1.2329386818       -3.7517846596        2.5131892101
 H         -2.1004556121       -4.3937057091        2.5466036502
 H         -1.2900425311       -2.9057407797        3.1825724302
 H          0.1623068671       -5.4417921203        2.1332602494
 H          0.9645344982       -3.9474183709        2.7694396395
 H         -0.9545766525       -4.0590508494        0.3360211099
 O         -0.9098356195        0.3317064103        1.8508477306
