  62
        -98.94694289
 C         -2.0982800304       -0.9833542902       -0.5188686299
 C         -1.4840405000        0.1155771195       -1.1656718002
 C         -2.1255611099        1.4242553496       -0.9682321110
 C         -3.2235299100        1.5182487202       -0.1988420213
 C         -3.9429831899        2.7943735804        0.1266923779
 C         -3.4076398702        3.4259704709        1.4188184178
 C         -1.8840480402        3.5473413707        1.4691253981
 H         -1.6293281504        4.0500132611        2.4052921080
 H         -1.4371583904        2.5506589306        1.5153137787
 C         -1.2661622597        4.3161673201        0.2930541080
 H         -0.5123207997        5.0024343001        0.6848594879
 H         -2.0298981195        4.9181471100       -0.2020267825
 C         -0.5656684996        3.4259972395       -0.7352353715
 H          0.0479120107        4.0633852991       -1.3782050516
 H          0.1047361001        2.7390046696       -0.2120382510
 C         -1.4938140195        2.6088815592       -1.6438067813
 H         -2.2578732893        3.2611875692       -2.0723893918
 H         -0.8903840093        2.2040852988       -2.4614009710
 H         -3.7284089505        2.8120716613        2.2637920980
 H         -3.8551477701        4.4158408910        1.5289447772
 H         -3.8307349296        3.4899397100       -0.7027731624
 H         -5.0024638500        2.5664843806        0.2574096177
 O         -3.7904217204        0.4435681505        0.4070109090
 C         -3.2370570605       -0.8174716496        0.2755445597
 O         -3.8523181709       -1.7094304193        0.8957029099
 H          0.7384508795       -1.0262782605       -0.1782137191
 C          0.5916990292       -1.7821787901        0.5741827912
 C         -0.5296014409       -2.5987615799        0.5175641713
 C         -0.7007954613       -3.5723745995        1.4938915016
 C          0.2231524784       -3.7131246592        2.5140991420
 C          1.3147850485       -2.8686144993        2.5922895919
 C          1.4951792389       -1.8890203598        1.6203690215
 N          2.5899687790       -1.0167199799        1.6874844314
 S          2.4507687694        0.6191401700        1.3192230206
 O          3.2569353192        1.2839846303        2.3249806006
 O          1.0714985495        1.0300232601        1.2385247501
 C          3.2942057298        0.7584197291       -0.2432166692
 C          2.5967299802        0.8199840187       -1.4313953994
 C          3.3090286805        0.9052981481       -2.6189844193
 C          4.6941266805        0.9269368078       -2.6004726689
 C          5.3805397102        0.8653987683       -1.3965880187
 C          4.6763771498        0.7802476289       -0.2077245888
 H          5.1682275696        0.7458137093        0.7502228313
 H          6.4584091102        0.8835189081       -1.3824882084
 H          5.2404537508        0.9929083673       -3.5282875788
 H          2.7687369008        0.9507570977       -3.5511788794
 H          1.5177657702        0.7934076389       -1.4319806497
 H          3.1700110988       -1.1453831296        2.5038527416
 H          2.0218138383       -2.9585022490        3.4034899021
 H          0.0809966181       -4.4734216988        3.2672910823
 H         -1.5754832514       -4.2053929694        1.4619843417
 C         -1.5597135006       -2.4061875603       -0.5709407891
 H         -2.4148072707       -3.0554956800       -0.3365780591
 C         -1.0067043203       -2.8161810110       -1.9209766388
 C         -0.9606053404       -4.2721567511       -2.2709306681
 C         -1.9368169101       -3.3659523213       -2.9581075788
 H         -1.7654533597       -3.1060363418       -3.9917034589
 H         -2.9821453901       -3.4498494710       -2.6975237790
 H         -1.3457021207       -4.9744529507       -1.5470662779
 H         -0.1157821103       -4.6388667815       -2.8331456477
 H         -0.1954637401       -2.1891608812       -2.2643382688
 O         -0.4560631998        0.0359303190       -1.8892500199
