  62
        -98.94307309
 C         -1.4748931196       -1.1185482903       -0.0401891515
 C         -2.4933476997       -0.6362594602        0.8113384283
 C         -2.9686383597        0.7320726798        0.5526440180
 C         -2.4097715296        1.4475314596       -0.4387855120
 C         -2.6883111495        2.8752075996       -0.8382942122
 C         -4.1525786995        3.3332429396       -0.8738727125
 C         -5.1605788394        2.2494648595       -1.2836357225
 H         -5.7929657593        2.6379683894       -2.0839253027
 H         -4.6327327494        1.3791526395       -1.6769858523
 C         -6.0717774896        1.8160846497       -0.1329669826
 H         -6.3914248097        2.7054073697        0.4144385272
 H         -6.9669844095        1.3490794496       -0.5503414426
 C         -5.4577881998        0.8189717798        0.8488645877
 H         -5.3409992897       -0.1542046403        0.3644801978
 H         -6.1600450999        0.6836824999        1.6749335776
 C         -4.0895421398        1.2158687499        1.4274732178
 H         -4.0286743799        2.2874997999        1.6027315177
 H         -3.9663321300        0.7017578600        2.3849511079
 H         -4.4334169497        3.7305948397        0.1004941974
 H         -4.2046536594        4.1650511195       -1.5784446126
 H         -2.1202480196        3.5246333797       -0.1649829422
 H         -2.2467748294        2.9824729895       -1.8321994622
 O         -1.4299480094        0.9422796095       -1.2382259318
 C         -0.9274202595       -0.3319364204       -1.0509995915
 O         -0.0161235193       -0.6477218505       -1.8416013313
 H          0.4069641002       -0.6317806600        1.5870184587
 C          1.0886646102       -1.3513214101        1.1570782289
 C          0.5949412104       -2.4065729502        0.4003798690
 C          1.4989839404       -3.3208508803       -0.1262945607
 C          2.8592338004       -3.1606228102        0.0758029795
 C          3.3476639903       -2.0777664901        0.7836619094
 C          2.4502560802       -1.1644360200        1.3242505891
 N          2.8899888701       -0.0267212499        2.0350705790
 S          2.5510631502        1.4653454900        1.3467319888
 O          3.1560352000        2.4336355801        2.2370960887
 O          1.1341453302        1.5991417299        1.1280743285
 C          3.4471718304        1.4476408198       -0.1961009711
 C          2.9201625806        0.7774081796       -1.2817111211
 C          3.6691055907        0.7099307594       -2.4473853010
 C          4.9191489207        1.3055831094       -2.5078919909
 C          5.4327543506        1.9755859496       -1.4073388309
 C          4.6939632404        2.0431289398       -0.2377933610
 H          5.0492910303        2.5543229699        0.6424628190
 H          6.4037601506        2.4414724196       -1.4563853008
 H          5.4942286809        1.2482115993       -3.4186014908
 H          3.2607121209        0.1878010693       -3.2978109410
 H          1.9415382306        0.3260454796       -1.2209596012
 H          3.8710639800       -0.0568607199        2.2793518092
 H          4.4096822803       -1.9360470101        0.9163580195
 H          3.5488395005       -3.8781577803       -0.3416603903
 H          1.1381406805       -4.1568225703       -0.7029695407
 C         -0.8971002796       -2.5017411802        0.1941752888
 H         -1.3568757698       -2.8597370001        1.1279248388
 C         -1.2880770994       -3.4366213304       -0.9324557911
 C         -1.4912052595       -4.8988759904       -0.6726256210
 C         -2.6702901694       -4.0151236004       -0.9434875413
 H         -3.1831607593       -4.1092345706       -1.8889160713
 H         -3.3191458996       -3.7574194003       -0.1190232514
 H         -1.1969337393       -5.6038250905       -1.4354954008
 H         -1.3471632296       -5.2526338302        0.3370266091
 H         -0.8631180993       -3.1372128605       -1.8842211011
 O         -2.9737446399       -1.3144280500        1.7610311083
