  62
        -98.94601463
 C         -2.0085819900       -0.2579841491        0.5119728298
 C         -1.6634844992        0.9000708312        1.2528079490
 C         -1.7384746884        2.1778799308        0.5366355881
 C         -2.0640135686        2.1894300001       -0.7682985619
 C         -2.1861208379        3.4088076395       -1.6414590027
 C         -0.8462294677        3.8927245383       -2.2126556532
 C          0.0640277529        4.6044290184       -1.2111331438
 H          0.8515855731        5.0949879375       -1.7866574342
 H         -0.5003952965        5.3838144191       -0.6971917343
 C          0.7167369524        3.6706648187       -0.1824115332
 H          0.6658386517        2.6418885585       -0.5496269325
 H          1.7776114726        3.9175626481       -0.0889590635
 C          0.1084744326        3.7491057000        1.2182404768
 H          0.2681108333        4.7495301002        1.6271517861
 H          0.6326154023        3.0380189702        1.8606084972
 C         -1.3913059275        3.4318975010        1.2830601072
 H         -1.6625768275        3.2785469919        2.3308199173
 H         -1.9678252071        4.2705561211        0.8924197467
 H         -1.0679857873        4.5843390679       -3.0291208536
 H         -0.3168615983        3.0343015477       -2.6349846227
 H         -2.6605748673        4.2173935802       -1.0840490932
 H         -2.8360093182        3.1305000194       -2.4740390524
 O         -2.3468780794        1.0556298898       -1.4581693211
 C         -2.2963765101       -0.1931687598       -0.8534513602
 O         -2.5418596308       -1.1336609202       -1.6323032595
 O         -1.3045924390        0.8680207918        2.4611862389
 C         -1.8912027908       -1.6058011287        1.2077089507
 C         -1.0384561515       -2.5056922298        0.3494587212
 C         -1.4374749323       -3.7352721099       -0.1533343579
 C         -0.6095211128       -4.4307794210       -1.0189043275
 C          0.6058736074       -3.9077036821       -1.4193657280
 C          1.0184436783       -2.6801661320       -0.9101568889
 C          0.2157916288       -2.0199313509        0.0013730007
 H          0.5331926995       -1.0688379208        0.3977296001
 N          2.2379221686       -2.1061965130       -1.2932365194
 S          2.4798179397       -0.4493467432       -1.2730379806
 O          1.2676864401        0.3006892374       -1.5028112710
 O          3.5472513197       -0.2412379045       -2.2296406409
 C          3.1232633800       -0.1611796925        0.3626359291
 C          2.3961104006        0.5468854086        1.2968062187
 C          2.9268998309        0.7311255092        2.5641100585
 C          4.1723732406        0.2081669986        2.8737327687
 C          4.8949949200       -0.4972404625        1.9227056891
 C          4.3675577697       -0.6856865731        0.6560874993
 H          4.8981682093       -1.2187336039       -0.1149781504
 H          5.8644214698       -0.9011019130        2.1661464393
 H          4.5801933208        0.3528448790        3.8616477086
 H          2.3565382913        1.2752694000        3.3004390982
 H          1.4269607008        0.9402059591        1.0300838086
 H          2.6997884482       -2.5526344339       -2.0710001892
 H          1.2258262670       -4.4336249530       -2.1294407677
 H         -0.9309584335       -5.3832204211       -1.4128975868
 H         -2.4067889325       -4.1326900991        0.0992736225
 H         -1.3331063205       -1.3845481584        2.1334141105
 C         -3.2099556811       -2.2276151975        1.6364625713
 C         -4.4063568005       -1.3718250466        1.9243052409
 C         -4.4064982913       -2.2848969774        0.7368415515
 H         -5.0294330718       -3.1669084770        0.7715746522
 H         -4.3127874011       -1.8547472481       -0.2475369088
 H         -5.0281410106       -1.6239891156        2.7701632011
 H         -4.3130036199       -0.3094702668        1.7499000301
 H         -3.0591401916       -3.0767702372        2.2961426019
