  62
        -98.94310716
 C         -2.0594286676       -1.3751419474        0.3368592501
 C         -2.0595812286       -0.2310879710        1.1779035698
 C         -3.0522722315        0.8026020693        0.8721013631
 C         -3.9051488559        0.6212155699       -0.1523794007
 C         -5.0046264158        1.5604650858       -0.5682745192
 C         -4.5411687016        2.6995455973       -1.4864056060
 C         -3.7093135468        3.7857565730       -0.8036494264
 H         -3.6395540341        4.6216440699       -1.5026280385
 H         -4.2380326540        4.1445150022        0.0799693456
 C         -2.2904508773        3.3454596389       -0.4161789634
 H         -2.0303199833        2.4343795098       -0.9598710584
 H         -1.5788178130        4.1154842524       -0.7208099268
 C         -2.0856870364        3.1019574542        1.0791742870
 H         -2.2073287235        4.0406153854        1.6241647806
 H         -1.0625622796        2.7490278114        1.2316259911
 C         -3.0366894560        2.0616304224        1.6849647916
 H         -2.6759480693        1.8077876685        2.6846576710
 H         -4.0426236245        2.4723962280        1.7699673536
 H         -3.9724984312        2.2707165692       -2.3147847912
 H         -5.4365704062        3.1652661331       -1.9046217011
 H         -5.7384293492        0.9591919404       -1.1094591842
 H         -5.4837681594        1.9777201203        0.3179625243
 O         -3.8715888460       -0.4846899352       -0.9388556429
 C         -2.9327037201       -1.4900004381       -0.7453245669
 O         -3.0035283956       -2.3998281635       -1.5940358078
 H          1.3839310973       -1.6424299628        1.5479886525
 C          1.3870866351       -1.7839767216        0.4757318820
 C          0.2249239535       -2.2007691532       -0.1569832377
 C          0.2341109950       -2.3523219009       -1.5394372514
 C          1.3861008609       -2.0984584990       -2.2617024856
 C          2.5480437422       -1.6941930998       -1.6265610923
 C          2.5458969241       -1.5294073053       -0.2475499783
 N          3.7220213829       -1.1371453553        0.4182474474
 S          4.5523160618        0.2324903337       -0.0602621172
 O          4.9931680240        0.0697045641       -1.4218566058
 O          5.5850303251        0.4110431908        0.9334957629
 C          3.3760774127        1.5685156268        0.0466994216
 C          2.4812109485        1.7656278334       -0.9861587306
 C          1.5513055489        2.7871967717       -0.8777148970
 C          1.5331321241        3.5897113801        0.2526780776
 C          2.4343504472        3.3745151041        1.2837739581
 C          3.3626029383        2.3511830699        1.1840622585
 H          4.0865566888        2.1538914983        1.9583016981
 H          2.4142396484        3.9986008221        2.1627115658
 H          0.8129186740        4.3888611516        0.3302414126
 H          0.8438359307        2.9524985884       -1.6746118184
 H          2.5293446226        1.1291626866       -1.8546777293
 H          3.6329177108       -1.1427037654        1.4243508996
 H          3.4507622186       -1.4932669147       -2.1805179532
 H          1.3819832421       -2.2205235920       -3.3345654715
 H         -0.6729636619       -2.6530783127       -2.0412214624
 C         -1.0249818213       -2.4420087301        0.6549708573
 H         -0.7686151920       -2.2836778280        1.7114505829
 C         -1.5253495959       -3.8627418163        0.4962408446
 C         -0.8072808529       -4.9645825814        1.2141700309
 C         -2.1744840062       -4.5442009106        1.6616452528
 H         -3.0076158991       -5.2041220071        1.4722862181
 H         -2.2608937073       -3.9875278053        2.5835703635
 H         -0.6978849178       -5.9164233040        0.7177691390
 H          0.0343348451       -4.6936511628        1.8338426584
 H         -1.9236860299       -4.0779261226       -0.4858917747
 O         -1.2685441022       -0.0896196935        2.1488438685
