  62
        -98.94351233
 C         -1.8324936319       -1.1064397187        0.4717966684
 C         -2.7686412260       -1.0220991986       -0.5878643189
 C         -4.0688075973       -0.4234712458       -0.2464821487
 C         -4.2894225204        0.0171234864        1.0048730213
 C         -5.5460652403        0.6932459973        1.4692321921
 C         -5.4486841664        2.2171430139        1.3120615198
 C         -4.9657025102        2.6663962478       -0.0671389030
 H         -4.9663050892        3.7586522191       -0.0719134282
 H         -3.9299729760        2.3465760916       -0.2049980515
 C         -5.8150216578        2.1494100759       -1.2367342324
 H         -6.7882785672        1.8203426834       -0.8706729765
 H         -5.9918516367        2.9734302137       -1.9312019426
 C         -5.1673498936        1.0204678988       -2.0406959108
 H         -4.1540981282        1.3111591807       -2.3298056582
 H         -5.7434809580        0.8847856112       -2.9598543430
 C         -5.0965129904       -0.3421103496       -1.3399922910
 H         -6.0841834304       -0.6135156986       -0.9618626804
 H         -4.7980252808       -1.0830074453       -2.0873005996
 H         -6.4308052083        2.6486343065        1.5137870850
 H         -4.7499124149        2.5989855598        2.0601530583
 H         -6.3898947210        0.3119964555        0.8975275745
 H         -5.6957907196        0.4546764184        2.5236186889
 O         -3.3579131400       -0.0594980051        1.9897717426
 C         -2.1096889943       -0.6030231918        1.7449853208
 O         -1.3412788648       -0.5850886953        2.7290628246
 H          0.8563191463        0.3859211604        1.2818634993
 C          1.0002244703        0.3320506143        0.2099711178
 C          0.3895905721       -0.6942607791       -0.4999608738
 C          0.5662657424       -0.7489280432       -1.8764799784
 C          1.3343319342        0.2056144900       -2.5213430562
 C          1.9518794200        1.2187410662       -1.8100898488
 C          1.7799111531        1.2803023505       -0.4333793972
 N          2.4625510543        2.2756536365        0.3029658052
 S          4.1358184188        2.1247940336        0.2292481033
 O          4.6420823610        2.7432536430        1.4338860630
 O          4.6044127268        2.6815073164       -1.0141897292
 C          4.4050281133        0.3611115451        0.2510676728
 C          4.6679255090       -0.3052336261       -0.9286353708
 C          4.7560349915       -1.6877958065       -0.9107077119
 C          4.5770943912       -2.3764210531        0.2788832700
 C          4.3211103309       -1.6920130434        1.4573300487
 C          4.2280032008       -0.3098862721        1.4447083908
 H          4.0297359293        0.2556484805        2.3415467288
 H          4.1837030761       -2.2295528139        2.3821233063
 H          4.6379181627       -3.4534983312        0.2890764252
 H          4.9549540703       -2.2235700790       -1.8245676806
 H          4.7984562195        0.2677416121       -1.8315975604
 H          2.1713201844        2.3127514935        1.2701450533
 H          2.5725441512        1.9564606018       -2.2928075109
 H          1.4590640631        0.1558804253       -3.5922032731
 H          0.0847937140       -1.5290366759       -2.4421184219
 C         -0.4433112195       -1.6912975060        0.2678399452
 H         -0.0100536682       -1.7763152821        1.2735661313
 C         -0.4627848727       -3.0669405926       -0.3639077492
 C          0.8004246090       -3.8733399933       -0.3557428704
 C         -0.3510109307       -4.2743244602        0.5152396661
 H         -0.9160289896       -5.1558631768        0.2516981575
 H         -0.2689068898       -4.1128332851        1.5803690125
 H          1.6653829990       -3.4305609358        0.1155357717
 H          1.0295219265       -4.4819228571       -1.2166109129
 H         -1.1096630442       -3.1395080084       -1.2280636874
 O         -2.5485008629       -1.4260480894       -1.7582962832
