  62
        -98.93973070
 C          0.4192894193        1.9208685434        0.0383864033
 C          1.6447345829        1.9604029328        0.7455391529
 C          2.7358006609        1.1167198141        0.2338010591
 C          2.5135264194        0.3254339818       -0.8316953507
 C          3.4534212632       -0.5882889820       -1.5883254938
 C          4.7101549389       -1.1391085026       -0.9181683438
 C          4.4574304562       -2.0276608110        0.2979943044
 H          5.4274751661       -2.3283862803        0.7011438172
 H          3.9379009724       -2.9336807478       -0.0251090298
 C          3.6358374290       -1.3977093003        1.4215652803
 H          3.6144184696       -2.1047595020        2.2562947781
 H          2.5973289932       -1.2671001618        1.1063815414
 C          4.1651862592       -0.0664475023        1.9553305082
 H          5.2162119920       -0.1732784823        2.2314954340
 H          3.6011605565        0.1610004049        2.8640078605
 C          4.0206359506        1.1410162975        1.0085948521
 H          4.8704695183        1.2227635294        0.3341480320
 H          3.9970301717        2.0475398734        1.6203297550
 H          5.3864536662       -0.3318171061       -0.6529507807
 H          5.2206636207       -1.7473257905       -1.6700314355
 H          3.7556978815       -0.0390060242       -2.4870241241
 H          2.8358114129       -1.4249132067       -1.9254104002
 O          1.3062653181        0.2942183774       -1.4629539717
 C          0.2281095912        1.0573537320       -1.0402837450
 O         -0.8094285655        0.8698308827       -1.7009865544
 O          1.8238692227        2.6792200848        1.7667020335
 C         -0.7364842006        2.7438743439        0.5761640704
 C         -1.9743173192        1.8878050948        0.6897817740
 C         -3.2468466952        2.3118403464        0.3294627660
 C         -4.3332756983        1.4646792016        0.4679022329
 C         -4.1735511447        0.1745430700        0.9377339406
 C         -2.9015868534       -0.2615172325        1.2935059769
 C         -1.8261027845        0.6029626644        1.1974662724
 H         -0.8481764351        0.2535572605        1.4943971623
 N         -2.6823725231       -1.5739829697        1.7487171361
 S         -1.3399471467       -2.4231049795        1.2423497121
 O         -1.6433735570       -3.7974678345        1.5916453182
 O         -0.1427702110       -1.8862004603        1.8413755403
 C         -1.2327564359       -2.3130284020       -0.5361690701
 C          0.0025883484       -2.5531854614       -1.1020055483
 C          0.1219760013       -2.5622270010       -2.4813137381
 C         -0.9906216751       -2.3219992487       -3.2704938871
 C         -2.2235970926       -2.0820920497       -2.6884106171
 C         -2.3522896180       -2.0868720818       -1.3090668899
 H         -3.3060582799       -1.8979942032       -0.8450391110
 H         -3.0869931833       -1.8846820726       -3.3030452243
 H         -0.8927819824       -2.3147616201       -4.3447000005
 H          1.0812668663       -2.7490386348       -2.9381879131
 H          0.8461357878       -2.7155117153       -0.4481459299
 H         -3.5004654356       -2.1658261418        1.7612074261
 H         -5.0187652502       -0.4915205105        1.0258651285
 H         -5.3169883819        1.8092825181        0.1877548426
 H         -3.3910099189        3.3003563649       -0.0739197296
 H         -0.4231075245        3.0132771799        1.5998683027
 C         -0.9727868180        4.0538596611       -0.1631682432
 C          0.0780590981        4.6480801578       -1.0514416410
 C         -1.1798344831        4.0946460563       -1.6467912852
 H         -1.9048095690        4.7888534430       -2.0457776358
 H         -1.1272257026        3.1571011391       -2.1772988895
 H          0.2157295376        5.7190275965       -1.0335996089
 H          0.9950568039        4.0924888639       -1.1856181029
 H         -1.5456470664        4.7608740667        0.4288164089
