  62
        -98.94294528
 C          2.4944582131        0.8339900267        0.4949238656
 C          2.5809600189       -0.3463491259       -0.2817539747
 C          3.7522837931       -1.1924794632       -0.0203532590
 C          4.6373382810       -0.8374392613        0.9288033679
 C          5.8668271471       -1.6084967922        1.3263580732
 C          7.0876907384       -1.3391808943        0.4360024867
 C          7.0191145843       -1.9500390528       -0.9642461474
 H          8.0183581033       -1.8712327507       -1.3970733889
 H          6.7817080259       -3.0113720463       -0.8852076671
 C          6.0186699510       -1.2651626534       -1.9058394925
 H          5.7544048071       -0.2837346194       -1.5052441090
 H          6.4889162201       -1.0974776507       -2.8774930029
 C          4.7362489216       -2.0595270731       -2.1538801072
 H          4.0862327133       -1.4664960977       -2.8022532019
 H          4.9759072259       -2.9883402477       -2.6762668182
 C          3.9499368481       -2.4030428670       -0.8817949815
 H          4.4596638981       -3.1888671375       -0.3248801628
 H          2.9616138044       -2.7648857681       -1.1756974508
 H          7.2301773052       -0.2589728767        0.3560976531
 H          7.9605098313       -1.7521984637        0.9469611318
 H          6.1100150423       -1.3009600383        2.3457180778
 H          5.6451513640       -2.6760391997        1.3288904070
 O          4.4996326168        0.2915520390        1.6748990660
 C          3.4413925941        1.1605702387        1.4651035057
 O          3.4488781773        2.1687507539        2.2009755887
 O          1.7289979999       -0.6776703183       -1.1462691418
 C          1.3390180404        1.7951073992        0.2824903540
 C          0.0263126390        1.0897577819        0.5238392450
 C         -0.1476361842        0.3884962020        1.7144899339
 C         -1.3355482755       -0.2616961301        1.9855455848
 C         -2.3794569883       -0.2277108771        1.0768649190
 C         -2.2226365124        0.4786404263       -0.1065936003
 C         -1.0273191648        1.1359388797       -0.3744305047
 H         -0.9232295459        1.6796491783       -1.3005226632
 N         -3.2748894810        0.5140884146       -1.0353940662
 S         -4.8225726045        0.8695392699       -0.4981167773
 O         -5.5092252971        1.4004436021       -1.6555147320
 O         -4.7948353061        1.7129893485        0.6742056123
 C         -5.5180503980       -0.7185925325       -0.0927147235
 C         -5.5096082892       -1.7018863519       -1.0624969013
 C         -6.0624354997       -2.9376054852       -0.7668796448
 C         -6.6140544442       -3.1671391044        0.4848851906
 C         -6.6173709250       -2.1686459565        1.4467128163
 C         -6.0648772032       -0.9305360058        1.1576328652
 H         -6.0403037152       -0.1265490401        1.8760587908
 H         -7.0466294148       -2.3489506650        2.4192395707
 H         -7.0438527411       -4.1300117719        0.7119621612
 H         -6.0608992169       -3.7169909327       -1.5118357826
 H         -5.0744077242       -1.4836995551       -2.0234845138
 H         -3.0579304127        1.0138044609       -1.8853302511
 H         -3.3073088662       -0.7369596993        1.2799435675
 H         -1.4511247272       -0.8037852182        2.9119839911
 H          0.6678353555        0.3602139100        2.4249839747
 H          1.4472437590        2.5761453794        1.0494824339
 C          1.4480749090        2.4384534350       -1.0843759265
 C          0.8669979516        3.7979542207       -1.3287458190
 C          2.3532999578        3.6192874291       -1.2569247295
 H          2.9280661937        3.7008170006       -2.1673191925
 H          2.8720942947        3.9779127394       -0.3796588901
 H          0.4238044367        4.0064853778       -2.2912614127
 H          0.3739325219        4.2873974478       -0.5021449544
 H          1.4149922581        1.7132968807       -1.8896436934
