  62
        -98.93967204
 C         -1.3468585551       -1.4270548812       -0.2864199157
 C         -2.5721364216       -1.3572322419        0.4227448494
 C         -3.6195850361       -0.4842510169       -0.1300793095
 C         -3.3741250302        0.1953734183       -1.2631717675
 C         -4.2920771539        1.1106106540       -2.0355409382
 C         -5.1787771457        2.0707134352       -1.2337872512
 C         -4.5353910861        2.6274029984        0.0447247183
 H         -3.4692141737        2.3910657494        0.0618753606
 H         -4.6236528916        3.7156461667        0.0423485304
 C         -5.1972121314        2.1047134257        1.3220135758
 H         -4.9579083178        2.7843040160        2.1434933235
 H         -6.2809792045        2.1225105802        1.1871095228
 C         -4.7693781405        0.7031649345        1.7548377840
 H         -5.3834736358        0.4135878366        2.6110178656
 H         -3.7309375773        0.7236161141        2.0978076317
 C         -4.8828089963       -0.3865546203        0.6761623318
 H         -4.9896933712       -1.3496956107        1.1827599975
 H         -5.7536545255       -0.2279805676        0.0448533988
 H         -5.4331195263        2.8952212945       -1.9022201586
 H         -6.1139847754        1.5759324580       -0.9757174692
 H         -3.6317662024        1.6852361973       -2.6902427487
 H         -4.9248889902        0.4920686244       -2.6792740066
 O         -2.1853712421        0.0967384513       -1.9193415376
 C         -1.1413481083       -0.6882770850       -1.4515039588
 O         -0.1242218356       -0.6365564518       -2.1696749405
 O         -2.7887673874       -2.0182753380        1.4747128919
 C         -0.2725986418       -2.3154434309        0.3084402470
 C          0.6585538281       -1.5641100685        1.2347541329
 C          1.2756814861       -2.2283540621        2.2905040049
 C          2.1409208345       -1.5586563226        3.1350409681
 C          2.4172387156       -0.2169998456        2.9396735953
 C          1.8043179888        0.4578636300        1.8908649455
 C          0.9310667762       -0.2183729730        1.0489791065
 H          0.4534233281        0.3265082725        0.2503818736
 N          2.0460139096        1.8237414813        1.6797062997
 S          2.2327682993        2.4117699850        0.1221349388
 O          2.8768372592        3.6954078848        0.3106089244
 O          0.9629547864        2.4408540798       -0.5569566153
 C          3.3804104682        1.2771259040       -0.6355502383
 C          2.9453020488        0.2837783932       -1.4877805514
 C          3.8763121184       -0.6164950193       -1.9860534271
 C          5.2104589125       -0.5113805795       -1.6277135506
 C          5.6311316425        0.4982261838       -0.7745893770
 C          4.7085487404        1.3986983492       -0.2704200781
 H          4.9936660043        2.2055445196        0.3852403948
 H          6.6703817709        0.5829402017       -0.5007347617
 H          5.9255959228       -1.2183546681       -2.0178487725
 H          3.5441539419       -1.3971442735       -2.6522304288
 H          1.9018421395        0.2168562624       -1.7552303126
 H          2.7286902927        2.2292665716        2.3035716923
 H          3.0903780038        0.3092702183        3.5987611264
 H          2.6073678135       -2.0846442493        3.9537079555
 H          1.0614534769       -3.2729814095        2.4550591579
 H         -0.8145109677       -3.0529089654        0.9181544594
 C          0.5451727329       -3.0604772168       -0.7304618370
 C          1.0562945674       -4.4380284689       -0.4389345214
 C         -0.0526525259       -4.2440481965       -1.4281077137
 H          0.1523863015       -4.3775815747       -2.4793943854
 H         -1.0515134319       -4.5385050143       -1.1397603529
 H          2.0327791532       -4.7111135320       -0.8075883113
 H          0.8042356998       -4.8819124481        0.5117897341
 H          1.1722384531       -2.4060944667       -1.3217840715
