  62
        -98.94556773
 C          1.9693681536        1.5130277289       -0.1028005938
 C          1.6837623890        0.2628843522       -0.7039205117
 C          2.8077197864       -0.6834836474       -0.7644797375
 C          4.0138517244       -0.3071596672       -0.3020774131
 C          5.2282967939       -1.1879604495       -0.2583064445
 C          5.3269539164       -1.9269109252        1.0836164258
 C          4.0296129000       -2.6184975558        1.5029053670
 H          4.2261552577       -3.1332545995        2.4459828263
 H          3.2693670731       -1.8600474772        1.7037139602
 C          3.4853786005       -3.6210330374        0.4759264858
 H          3.1814061725       -4.5284840280        1.0019973221
 H          4.2756073172       -3.9014843865       -0.2214722733
 C          2.2662330931       -3.1306187684       -0.3077593923
 H          1.8396655069       -3.9887659493       -0.8333076951
 H          1.5090492326       -2.7575975149        0.3862158708
 C          2.5349513058       -2.0394802464       -1.3516280530
 H          3.3505306245       -2.3483192730       -2.0085516876
 H          1.6287617199       -1.9234958903       -1.9530132990
 H          6.1292469782       -2.6638644386        1.0146200851
 H          5.5959748668       -1.2044984026        1.8578566425
 H          6.1131267268       -0.5615892231       -0.3839489944
 H          5.1829239548       -1.9034576913       -1.0768550694
 O          4.2562620986        0.9178623615        0.2322287637
 C          3.2383084278        1.8475941376        0.3677283938
 O          3.5827105916        2.9160038816        0.9131326262
 O          0.5553797979       -0.0468733922       -1.1645778213
 C          0.8626810054        2.5419103942        0.0486162329
 C         -0.2987373712        1.9089768340        0.7742749936
 C         -0.0670628431        1.3146996148        2.0123658929
 C         -1.0861164452        0.6807515439        2.6960753988
 C         -2.3608540263        0.6219357790        2.1594551179
 C         -2.6029002781        1.2144752919        0.9285108072
 C         -1.5790362567        1.8622604613        0.2485121820
 H         -1.7871709732        2.3149446010       -0.7081040233
 N         -3.8940355090        1.1531051844        0.3697210810
 S         -4.6023318129       -0.3585912371        0.2243415188
 O         -5.6592082787       -0.1836845734       -0.7468831570
 O         -5.0114880390       -0.8184468072        1.5278712320
 C         -3.3275637002       -1.4180245658       -0.4303554130
 C         -3.0338377527       -1.3285201392       -1.7760688196
 C         -2.0192042875       -2.1145306364       -2.2945090787
 C         -1.3144933732       -2.9671095048       -1.4604221227
 C         -1.6179976613       -3.0422672484       -0.1108823369
 C         -2.6331252777       -2.2593401614        0.4138322931
 H         -2.9023731144       -2.2925329359        1.4569105898
 H         -1.0646298916       -3.7057956186        0.5345995490
 H         -0.5219370416       -3.5761254615       -1.8654972402
 H         -1.7754792507       -2.0550616140       -3.3431169151
 H         -3.6104724496       -0.6603693879       -2.3957624360
 H         -3.9725361795        1.6522130091       -0.5051381651
 H         -3.1667569515        0.1222837399        2.6719994160
 H         -0.8879320608        0.2236808248        3.6540226834
 H          0.9320094656        1.3490979617        2.4265088899
 H          1.2714017656        3.3438444028        0.6797229169
 C          0.5032070094        3.1219822983       -1.3032346346
 C         -0.1059206124        4.4879407414       -1.3990103998
 C          1.3098216644        4.2655383956       -1.8373592765
 H          1.5338152955        4.2900522747       -2.8933261377
 H          2.1075680828        4.6429633289       -1.2143020654
 H         -0.8524324837        4.6706897864       -2.1574580840
 H         -0.2728464120        5.0264596147       -0.4783766189
 H          0.1835552110        2.3653556822       -2.0109354361
