  62
        -98.94455624
 C         -1.7833636280       -1.4899995144       -0.6613886611
 C         -1.5112928112       -0.2684029333       -1.3238803001
 C         -2.4760839530        0.8193139758       -1.0924766351
 C         -3.5241699048        0.6176906589       -0.2761638978
 C         -4.5566592301        1.6490047179        0.0742842848
 C         -4.1729955257        2.4247874658        1.3412358146
 C         -2.7455614748        2.9729038142        1.3291595817
 H         -2.6107765445        3.5470477695        2.2491470688
 H         -2.0327749706        2.1452115094        1.3687747012
 C         -2.4124120570        3.8598814601        0.1215304126
 H         -3.3318142332        4.2133354512       -0.3481133478
 H         -1.8681954111        4.7379800249        0.4759581708
 C         -1.5270298307        3.1800690822       -0.9245555749
 H         -0.6782187624        2.7133504346       -0.4181523853
 H         -1.1329553408        3.9503877212       -1.5934385691
 C         -2.2204436207        2.1233429788       -1.7946725313
 H         -3.1491446091        2.5315119011       -2.1999062844
 H         -1.5543140980        1.8893062153       -2.6304103460
 H         -4.8782236278        3.2492668551        1.4654929164
 H         -4.2748593163        1.7580193921        2.2008348987
 H         -4.6732481568        2.3357005945       -0.7621074485
 H         -5.5053147388        1.1373036399        0.2475217732
 O         -3.7493408006       -0.5642898299        0.3542216608
 C         -2.8817444885       -1.6298900732        0.1909632394
 O         -3.1993194479       -2.6497302438        0.8376109246
 H          0.7197807680       -0.6908546168       -0.0203144754
 C          0.8474213362       -1.5440781898        0.6224726217
 C          0.1065048012       -2.6930132441        0.3817841633
 C          0.2738245820       -3.7871199983        1.2208318479
 C          1.1508013864       -3.7195498369        2.2896761620
 C          1.8595974643       -2.5608927264        2.5475452098
 C          1.7030232476       -1.4599652489        1.7094804245
 N          2.4189204047       -0.2831551459        1.9471134042
 S          1.9323125154        1.2404629724        1.4463612769
 O          2.4804466969        2.1273879440        2.4528078677
 O          0.5066176381        1.3152862960        1.2455132250
 C          2.8472296488        1.4756726779       -0.0640171267
 C          2.2613365170        1.3141798030       -1.3021679432
 C          3.0426234077        1.4836560978       -2.4362561746
 C          4.3841222588        1.8075282185       -2.3172887976
 C          4.9578493019        1.9687320780       -1.0645206048
 C          4.1847167114        1.8010925948        0.0712331859
 H          4.5851063957        1.9303794138        1.0631391848
 H          6.0014483506        2.2229528164       -0.9714447053
 H          4.9843094476        1.9360853225       -3.2043455816
 H          2.5882101336        1.3546578978       -3.4055510856
 H          1.2176932454        1.0530726829       -1.3897516419
 H          2.9228434339       -0.2526566303        2.8199264498
 H          2.5253001801       -2.5013984224        3.3951910475
 H          1.2710143103       -4.5729091530        2.9399252445
 H         -0.3050403235       -4.6823876394        1.0471621456
 C         -0.8866973869       -2.7166488279       -0.7525347714
 H         -1.5541826876       -3.5778586541       -0.5858481910
 C         -0.2389978581       -2.9044807175       -2.1163393607
 C          1.2148710444       -2.6715885422       -2.3826354824
 C          0.6779994119       -4.0690941167       -2.3491215897
 H          0.5936669539       -4.6170949851       -3.2752595321
 H          0.9297530438       -4.6793064920       -1.4946704315
 H          1.4823288559       -2.2378458470       -3.3336983316
 H          1.8392674902       -2.3437511773       -1.5662711702
 H         -0.9200261772       -2.6529604350       -2.9226119356
 O         -0.5289993937       -0.0743543993       -2.0848011159
