  62
        -98.94023188
 C         -2.4795846312       -1.0990191924        0.0765385100
 C         -2.7179187212       -0.0342377317       -0.8253383858
 C         -4.1241516740        0.3654639580       -0.9825273632
 C         -5.0784393398       -0.2960107641       -0.3023766673
 C         -6.5403666152        0.0427570765       -0.3262994078
 C         -6.8990216058        1.0311122060        0.7924108884
 C         -5.9718865340        2.2444201542        0.8652074679
 H         -6.3378309388        2.8854425686        1.6701921968
 H         -4.9705942725        1.9122366864        1.1490924659
 C         -5.8847423193        3.0555280065       -0.4351029134
 H         -5.9546347878        4.1174949861       -0.1905867350
 H         -6.7312540394        2.8149448715       -1.0791953576
 C         -4.5834686249        2.8634961946       -1.2164096990
 H         -3.7292486073        3.0116407856       -0.5506895239
 H         -4.5336940585        3.6354112937       -1.9889798471
 C         -4.4180811158        1.5074581456       -1.9141672031
 H         -5.3010074499        1.2943530875       -2.5201493217
 H         -3.5525689873        1.5796014281       -2.5793354379
 H         -7.9271258566        1.3650225732        0.6413917363
 H         -6.8493398410        0.5044764573        1.7482572311
 H         -6.7937629561        0.4669526717       -1.2957803695
 H         -7.1086195932       -0.8776123372       -0.1820310279
 O         -4.8109279999       -1.3307231758        0.5356139799
 C         -3.5092455972       -1.7486978157        0.7562979323
 O         -3.4003119666       -2.6900191964        1.5685256880
 H          1.4946999935       -0.8679773435       -0.4628298000
 C          1.0871582700       -0.2268868993        0.3006223972
 C         -0.1899438081       -0.4370940561        0.7949966379
 C         -0.6679389635        0.4160786837        1.7868806515
 C          0.1070888591        1.4577821413        2.2574603470
 C          1.3847742654        1.6600736937        1.7656030363
 C          1.8740385923        0.8116224854        0.7805092658
 N          3.1598141203        0.9982016421        0.2474531920
 S          4.0626358473       -0.3689252050       -0.1620143869
 O          3.6944028208       -0.7980984239       -1.4873688545
 O          3.9583832509       -1.3608094507        0.8845818767
 C          5.7043224605        0.3282388026       -0.1905713306
 C          6.1285370271        0.9863308787       -1.3295764944
 C          7.3919050471        1.5557610695       -1.3426980535
 C          8.2051560697        1.4593877064       -0.2231886277
 C          7.7664941422        0.7943777887        0.9119625721
 C          6.5037308579        0.2233242314        0.9321491382
 H          6.1245937544       -0.3112777636        1.7882818593
 H          8.4022539000        0.7182403847        1.7793392630
 H          9.1883253815        1.9026724906       -0.2366726456
 H          7.7375088838        2.0709645899       -2.2243753106
 H          5.4652234566        1.0279725639       -2.1778259159
 H          3.7096794152        1.6640179185        0.7730191506
 H          1.9930773244        2.4710079801        2.1364915960
 H         -0.2823000835        2.1136116698        3.0218954509
 H         -1.6618218930        0.2505707929        2.1815987716
 C         -1.0605518504       -1.5760672365        0.3215179275
 H         -1.1214006811       -2.3146921249        1.1354886979
 C         -0.5233196706       -2.2648555728       -0.9159804239
 C          0.5073936649       -3.3452562775       -0.7935892816
 C         -0.8986894119       -3.6907595032       -1.1798691153
 H         -1.0953865144       -3.9927716512       -2.1975485900
 H         -1.5249597770       -4.1806499206       -0.4482433265
 H          0.8438655096       -3.6056585603        0.1991403008
 H          1.2826308936       -3.4036009189       -1.5435394851
 H         -0.4607073161       -1.5973024215       -1.7685254808
 O         -1.8065672824        0.5542203836       -1.4639636585
