  62
        -98.93460973
 C          1.9401099121        0.9176662054       -0.2790459930
 C          2.6354554417        0.3224020877        0.8039691201
 C          2.9829146098       -1.1009301073        0.6795138203
 C          2.6016456856       -1.7717818486       -0.4203046368
 C          2.7897837824       -3.2332837766       -0.7447311967
 C          4.1466606249       -3.8661856646       -0.4080783449
 C          5.3530073320       -2.9275957931       -0.5568537359
 H          6.1085805226       -3.4161046306       -1.1748066823
 H          5.0522542576       -2.0131912757       -1.0711307369
 C          6.0001149375       -2.5702532705        0.7832572355
 H          6.0614743961       -3.4734078707        1.3940600774
 H          7.0216065148       -2.2288093793        0.5997477419
 C          5.2934040029       -1.4747034028        1.5804776313
 H          5.7841713603       -1.3965772643        2.5534668523
 H          5.4198855417       -0.5114140253        1.0791852763
 C          3.7869676882       -1.6853769725        1.8057028961
 H          3.4985489386       -1.1267473041        2.7002260607
 H          3.5533908018       -2.7355585048        1.9630319086
 H          4.1234333944       -4.2576708732        0.6078229373
 H          4.2668926605       -4.7233434421       -1.0727651104
 H          2.6049263383       -3.3106772784       -1.8191053185
 H          1.9948193997       -3.7929714873       -0.2425500683
 O          1.9228732699       -1.1681817899       -1.4349406824
 C          1.5709030467        0.1738679552       -1.3991698902
 O          0.9641247608        0.5499941567       -2.4219825022
 O          2.9557825124        0.9630439431        1.8419939694
 C          1.5699784677        2.3806431368       -0.1107736834
 C          0.2163564621        2.5081666570        0.5490113557
 C          0.0421784024        3.3263773174        1.6592070594
 C         -1.1921441023        3.4234490957        2.2760978649
 C         -2.2682287768        2.6909976256        1.8101549343
 C         -2.1054111296        1.8741320754        0.6963322304
 C         -0.8740599933        1.8016734801        0.0622170174
 H         -0.7686927070        1.1651769130       -0.8037694712
 N         -3.1790942051        1.1231246119        0.1930415161
 S         -2.8538609825       -0.4248623144       -0.4055077768
 O         -1.8260486386       -1.0577122469        0.3909758066
 O         -2.6209283202       -0.3354822013       -1.8242258341
 C         -4.4302717796       -1.2106847882       -0.1162927775
 C         -5.4414058365       -1.0340713542       -1.0421167927
 C         -6.6784401024       -1.6108705335       -0.8018096409
 C         -6.8836494080       -2.3492593561        0.3543048868
 C         -5.8592874831       -2.5191023223        1.2735810683
 C         -4.6199456776       -1.9437309815        1.0398684470
 H         -3.7913978715       -2.0547100096        1.7210101700
 H         -6.0202031755       -3.0962072409        2.1698280989
 H         -7.8470925743       -2.7973936923        0.5389192006
 H         -7.4757773215       -1.4830412486       -1.5159099260
 H         -5.2302063290       -0.4600126109       -1.9292663016
 H         -3.9840571454        1.1258216987        0.8049109114
 H         -3.2273508137        2.7477737525        2.3020584023
 H         -1.3130900185        4.0605660625        3.1388664428
 H          0.8882685925        3.8718260133        2.0498758762
 H          2.3155264238        2.7915039815        0.5849869396
 C          1.6084923344        3.1946463402       -1.3883254995
 C          1.8405583545        4.6726247716       -1.3042517998
 C          2.9090965774        3.7758161050       -1.8518696592
 H          3.1129074403        3.7944371952       -2.9117392166
 H          3.7822895693        3.5915811599       -1.2429322448
 H          1.3075839492        5.3145457703       -1.9884007701
 H          1.9939619854        5.1014728634       -0.3257813000
 H          0.9267852417        2.8319286151       -2.1467581930
