  62
        -98.94460531
 C         -1.4746166306       -0.7269209206        0.2940291393
 C         -2.5064500505       -0.7991957308       -0.6742274207
 C         -3.4165630010        0.3544194388       -0.7220130804
 C         -3.1981175715        1.4222771287        0.0647873599
 C         -4.0185465721        2.6829341283        0.0993842303
 C         -5.2648006120        2.5918308075        0.9908321203
 C         -6.4002601816        1.7296120072        0.4377775500
 H         -7.2813467217        1.9290234966        1.0510669601
 H         -6.6338255518        2.0463619773       -0.5791722499
 C         -6.1171725710        0.2209380473        0.4570647296
 H         -5.2852946109        0.0147615675        1.1346267596
 H         -6.9879043307       -0.3080071432        0.8512645295
 C         -5.8017982007       -0.3821594722       -0.9118967005
 H         -5.5795096602       -1.4435467621       -0.7750638708
 H         -6.6791400208       -0.3028610424       -1.5577256405
 C         -4.6083644810        0.2647633185       -1.6268764504
 H         -4.3345078107       -0.3655442712       -2.4762490505
 H         -4.8821479715        1.2521939385       -1.9973366101
 H         -4.9661554618        2.2148162774        1.9718515501
 H         -5.6427307725        3.6078254773        1.1269453205
 H         -3.3699092224        3.4664592385        0.4968239705
 H         -4.3142273722        2.9564916185       -0.9137977397
 O         -2.1537751415        1.4836096089        0.9337463299
 C         -1.2997529810        0.4060289793        1.0942776096
 O         -0.4255786911        0.5776881994        1.9686111497
 O         -2.6812242001       -1.7593496907       -1.4688313409
 C         -0.4713073501       -1.8450764702        0.5325127590
 C          0.6693923499       -1.7505324195       -0.4522504209
 C          0.4713347300       -1.9309427492       -1.8174485610
 C          1.5341089399       -1.8271805385       -2.6954776310
 C          2.8053485298       -1.5291057880       -2.2357174209
 C          3.0129325197       -1.3445459183       -0.8741387709
 C          1.9469675798       -1.4667610590        0.0070358391
 H          2.1236512097       -1.3278917792        1.0627585992
 N          4.2942211796       -1.0549945879       -0.3770404008
 S          4.5041865691        0.1250909619        0.7910663995
 O          5.9282839890        0.3801997425        0.7828580096
 O          3.9472493393       -0.3142346387        2.0439477894
 C          3.6387929384        1.5498725817        0.1576622699
 C          4.3154780081        2.3634256522       -0.7320043099
 C          3.6573837476        3.4463813821       -1.2896261796
 C          2.3328696275        3.6923786514       -0.9587525095
 C          1.6690288178        2.8666750409       -0.0658386598
 C          2.3233960383        1.7838903810        0.5021522200
 H          1.8150597086        1.1411376306        1.2037573698
 H          0.6390575878        3.0475865604        0.2009886603
 H          1.8158428071        4.5328930913       -1.3944182393
 H          4.1746723773        4.0932959425       -1.9796383995
 H          5.3472521482        2.1425146927       -0.9531119200
 H          5.0076578895       -0.9807567274       -1.0880708308
 H          3.6323204097       -1.4436020975       -2.9240678509
 H          1.3702034200       -1.9719863383       -3.7525691610
 H         -0.5227665900       -2.1411377695       -2.1808040610
 H         -0.0562919101       -1.6640148803        1.5340070991
 C         -1.0921457794       -3.2279023105        0.5210655687
 C         -0.3724189089       -4.3457334304        1.2107799684
 C         -1.6379804592       -3.7945594011        1.7951890485
 H         -2.5339487589       -4.3953259015        1.7499552284
 H         -1.5652890694       -3.1866031013        2.6858707887
 H         -0.3972079885       -5.3278967403        0.7644168581
 H          0.5585712110       -4.1111866001        1.7057592384
 H         -1.6244540194       -3.4571447205       -0.3920483214
