  62
        -98.93607528
 C          2.3105341400        1.1082547105        0.1552340808
 C          3.5484969600        0.9176436002        0.8211522208
 C          4.5059488001       -0.0190761493        0.2092794103
 C          4.1589349603       -0.6730898386       -0.9143470801
 C          4.9268616105       -1.6530176480       -1.7765740106
 C          6.2016198205       -2.3151054182       -1.2599818909
 C          5.9919760105       -3.2896489389       -0.1014808715
 H          5.4580908106       -4.1661031688       -0.4775862321
 H          6.9723792905       -3.6216087291        0.2470063984
 C          5.2011883603       -2.7441614097        1.0851312687
 H          4.1838532503       -2.5036499097        0.7685996188
 H          5.1246122503       -3.5412074202        1.8297569183
 C          5.8105134901       -1.5237379101        1.7725486896
 H          5.2373897900       -1.3409448307        2.6854517196
 H          6.8403395401       -1.7410694602        2.0621481495
 C          5.7958376601       -0.2232358796        0.9504803003
 H          6.6416297201       -0.1759188891        0.2688060905
 H          5.8867853799        0.6158254400        1.6462741509
 H          6.6173459507       -2.8828045477       -2.0969377712
 H          6.9371287204       -1.5610920483       -0.9955722503
 H          5.1667062306       -1.1122539175       -2.6989890303
 H          4.2068085806       -2.4293103179       -2.0550468512
 O          2.9474530804       -0.4762592884       -1.5093980101
 C          1.9936101902        0.3957325012       -1.0015404997
 O          0.9481349803        0.4301608115       -1.6776450498
 O          3.8485849198        1.5139977896        1.8892701312
 C          1.3123864598        2.0510700100        0.8068270912
 C         -0.0009922301        1.3364510098        0.9901259006
 C         -0.1583853001        0.4584207691        2.0583491201
 C         -1.3290264601       -0.2594484111        2.2140700995
 C         -2.3600361700       -0.1275849807        1.3001394295
 C         -2.2036053399        0.7300016300        0.2200491600
 C         -1.0392395900        1.4743960402        0.0833232206
 H         -0.9224875100        2.1307536107       -0.7649419190
 N         -3.2372446499        0.8569008305       -0.7232339400
 S         -3.9899754197       -0.5361879893       -1.2806979409
 O         -3.1200159795       -1.6881030592       -1.2336489315
 O         -4.5233556195       -0.1816789585       -2.5784937508
 C         -5.3467861198       -0.7527317101       -0.1447451812
 C         -6.1998921899        0.3131698497        0.0646335193
 C         -7.2624740700        0.1582921190        0.9404198491
 C         -7.4557256099       -1.0538233314        1.5862748484
 C         -6.5935181098       -2.1160441511        1.3621866478
 C         -5.5280459097       -1.9670254005        0.4878793680
 H         -4.8283795996       -2.7630591403        0.2872580676
 H         -6.7449732397       -3.0581057815        1.8643146772
 H         -8.2828471900       -1.1716911319        2.2683466682
 H         -7.9351933301        0.9820098089        1.1169573495
 H         -6.0164284899        1.2366245800       -0.4585387901
 H         -2.9969170598        1.4599203210       -1.4971667096
 H         -3.2684023799       -0.6979724308        1.4043057990
 H         -1.4396975901       -0.9334947116        3.0499312091
 H          0.6558839998        0.3368459788        2.7594531601
 H          1.7379587397        2.2451400895        1.8043914314
 C          1.1660886498        3.4060495004        0.1314345220
 C          2.3711387998        4.1179138909       -0.4050549174
 C          1.3154350099        3.6196336313       -1.3437440378
 H          0.6707929999        4.3453775615       -1.8187450575
 H          1.5348963001        2.7644544517       -1.9631928983
 H          2.4594738696        5.1815888708       -0.2438844268
 H          3.3126391898        3.5890058209       -0.3723855476
 H          0.4256726097        4.0216663100        0.6337064623
