  62
        -98.93594199
 C          1.9615381605        1.5228854988        0.0832601944
 C          2.2414041855        0.5388394329       -0.8940855982
 C          3.5830832702       -0.0769624808       -0.8438583706
 C          4.4470143351        0.2773259868        0.1243001282
 C          5.8709944884       -0.1578210822        0.4001281275
 C          6.4467259387       -1.4125955797       -0.2516416413
 C          5.8007799792       -2.7227155890        0.1971208027
 H          6.2307559690       -3.5342649589       -0.3940935480
 H          6.0615423552       -2.8996368399        1.2436269258
 C          4.2791927129       -2.7804553535        0.0854499066
 H          3.9566626759       -3.7694050733        0.4229207883
 H          3.8328924947       -2.0502608531        0.7641144926
 C          3.7185543384       -2.5624956182       -1.3187794175
 H          4.1931421090       -3.2563629776       -2.0153439889
 H          2.6518503938       -2.8009049349       -1.2863264999
 C          3.8581825088       -1.1340808085       -1.8746786232
 H          4.8340909463       -0.9798848388       -2.3286186865
 H          3.1066987530       -1.0034051199       -2.6587267091
 H          7.5021368479       -1.4523252006        0.0313965033
 H          6.4148390214       -1.3254913110       -1.3337347645
 H          6.5017677357        0.6946541629        0.1244020084
 H          5.9440319561       -0.2547151317        1.4880407899
 O          4.1248320089        1.2177299789        1.0599621059
 C          2.8999373184        1.8568990422        1.0628020393
 O          2.7658762874        2.6970936734        1.9747412721
 H         -0.1396809736       -0.2709462410       -0.2512245920
 C         -0.6820871474        0.1884065021        0.5618444630
 C         -0.3998934609        1.5028129099        0.9091079447
 C         -1.1144748440        2.0829465813        1.9502375459
 C         -2.0816181295        1.3617521446        2.6294438860
 C         -2.3579245356        0.0516794861        2.2823017327
 C         -1.6511048492       -0.5359869556        1.2406834466
 N         -1.9305373743       -1.8657422044        0.8689635104
 S         -3.5277172167       -2.2319009952        0.5166738437
 O         -4.2743359913       -2.3328486561        1.7455591881
 O         -3.4786418743       -3.4243939465       -0.2979923319
 C         -4.1050235532       -0.8408395038       -0.4369757830
 C         -4.8722641702        0.1358124298        0.1650865196
 C         -5.2422032972        1.2468913479       -0.5759185167
 C         -4.8406538342        1.3616888395       -1.8975985178
 C         -4.0756086759        0.3684694841       -2.4898471978
 C         -3.6975836268       -0.7419239587       -1.7527167125
 H         -3.1018847350       -1.5334568817       -2.1791257111
 H         -3.7636553453        0.4594418503       -3.5177513204
 H         -5.1230756671        2.2301883383       -2.4708945913
 H         -5.8375990979        2.0204694230       -0.1186204798
 H         -5.1682390346        0.0057197329        1.1927821628
 H         -1.3268611173       -2.2026192577        0.1324180411
 H         -3.1048754254       -0.5267527705        2.8014713178
 H         -2.6243786736        1.8234589635        3.4399943699
 H         -0.8971369180        3.1018207803        2.2355993925
 C          0.6467937743        2.2835713597        0.1570949737
 H          0.8748697580        3.1836227639        0.7491502286
 C          0.1641102338        2.7560853523       -1.2091711480
 C         -1.0292172840        2.1940938845       -1.9151963292
 C         -1.0936263871        3.5664836787       -1.3206823552
 H         -1.1011828923        4.4211636971       -1.9796401410
 H         -1.6814429176        3.6915728626       -0.4239590495
 H         -0.9683707755        2.0915404353       -2.9876520277
 H         -1.5871390539        1.4054224938       -1.4358264385
 H          0.9939817797        3.0584614592       -1.8403145841
 O          1.4284692020        0.1720504196       -1.7820885680
