  62
        -98.94714394
 C         -1.4966449340       -1.6831661594       -0.0694170204
 C         -1.5659668933       -0.6471664162       -1.0342350848
 C         -2.7982675763        0.1577018924       -1.0267152682
 C         -3.7663489231       -0.1145406475       -0.1345849931
 C         -5.0387824893        0.6651515625        0.0232430547
 C         -4.8752601005        1.7920105631        1.0523053097
 C         -3.6393829436        2.6640364737        0.8269976949
 H         -3.6522861206        3.4499823086        1.5857787746
 H         -2.7369110161        2.0723856276        1.0006539566
 C         -3.5560482532        3.3013473963       -0.5667670588
 H         -4.5380547503        3.2857321713       -1.0425334980
 H         -3.2644007658        4.3477959306       -0.4545202987
 C         -2.5275341793        2.6524693981       -1.4951907566
 H         -1.5666727662        2.5795666020       -0.9783607014
 H         -2.3852147698        3.3112453154       -2.3568287918
 C         -2.9022624244        1.2662209484       -2.0359017320
 H         -3.9047401111        1.2991606910       -2.4690268890
 H         -2.1920619037        1.0183341233       -2.8302117307
 H         -5.7703862321        2.4164067680        1.0254188838
 H         -4.8016385901        1.3454160118        2.0467139212
 H         -5.3284435622        1.0787571754       -0.9407563148
 H         -5.8190306523       -0.0167499471        0.3661629455
 O         -3.6729687826       -1.1234578121        0.7692616426
 C         -2.5400490758       -1.9155983982        0.8307578116
 O         -2.5821111646       -2.7974149335        1.7138716408
 H          0.2514129857        0.0474873873        0.5990831928
 C          0.9203284318       -0.6220023775        1.1150471722
 C          0.7724096314       -1.9932690949        0.9861879250
 C          1.6416534251       -2.8242175910        1.6869195719
 C          2.6283740530       -2.2916189933        2.4948571301
 C          2.7778748115       -0.9209826702        2.6127595052
 C          1.9149897980       -0.0812481567        1.9194545253
 N          2.0255546863        1.3128851627        2.0317626131
 S          1.8653890458        2.2714655972        0.6656454893
 O          2.4564305675        3.5353463482        1.0546465467
 O          0.4877842453        2.3238142351        0.2528705595
 C          2.9036779063        1.4761605245       -0.5457974263
 C          2.3689562833        0.6600317194       -1.5205298358
 C          3.2348353234        0.0055664841       -2.3850154258
 C          4.6043591847        0.1738053745       -2.2616330682
 C          5.1241910004        1.0042209437       -1.2796117801
 C          4.2676110089        1.6588586195       -0.4113580949
 H          4.6279693011        2.3230119652        0.3576249389
 H          6.1898475311        1.1393759548       -1.1877388197
 H          5.2692451329       -0.3424535624       -2.9361495836
 H          2.8253489803       -0.6355961341       -3.1496837471
 H          1.2997562968        0.5376506766       -1.6014116062
 H          2.7977301613        1.6253703689        2.6024507587
 H          3.5458719385       -0.5021017576        3.2448116870
 H          3.2901061860       -2.9481742132        3.0385660185
 H          1.5299210414       -3.8943358100        1.6060438180
 C         -0.2939991146       -2.5940637949        0.0961455516
 H         -0.6722755465       -3.4941994648        0.6019914910
 C          0.3288301759       -3.0146350296       -1.2232942251
 C          0.9243765457       -4.3809125233       -1.3717615299
 C         -0.3590452775       -4.0430494296       -2.0678686264
 H         -0.3561121065       -3.9136094402       -3.1394636217
 H         -1.2750625046       -4.4692645106       -1.6841691776
 H          1.8190995084       -4.4885479941       -1.9651410444
 H          0.8716477228       -5.0525529096       -0.5285850781
 H          0.8124008259       -2.1968199144       -1.7408908464
 O         -0.6619783493       -0.3908693446       -1.8717439869
