  62
        -98.92895633
 C         -2.5286499604       -0.5511993899        0.4772176805
 C         -2.9334586203        0.8013156902        0.3559397613
 C         -4.2592759203        1.0597394906       -0.2305158886
 C         -5.0165451904        0.0187877409       -0.6232035892
 C         -6.3767472304       -0.0338723687       -1.2873529092
 C         -7.2690814903        1.2033309214       -1.3390671084
 C         -7.8095999203        1.6576352506        0.0163467119
 H         -8.3442421803        2.5991528407       -0.1269141976
 H         -8.5309046403        0.9158396205        0.3685584114
 C         -6.7650461803        1.8410055200        1.1144369119
 H         -6.2901173103        0.8822808398        1.3326461214
 H         -7.2867188302        2.1555738894        2.0224562521
 C         -5.6808480902        2.8758034501        0.8200195925
 H         -6.1439559302        3.8305412002        0.5633508331
 H         -5.1053672602        3.0193354495        1.7384727926
 C         -4.6875314303        2.4977693007       -0.2925135477
 H         -5.0851397703        2.7372800813       -1.2759701376
 H         -3.7804422902        3.0928325406       -0.1522007174
 H         -8.1266777004        0.9422320418       -1.9651929686
 H         -6.7530938703        2.0188434417       -1.8371903180
 H         -6.1912205804       -0.3704140981       -2.3134410394
 H         -6.9185806104       -0.8457811489       -0.7917475296
 O         -4.5813758904       -1.2676148892       -0.4988995899
 C         -3.3461626504       -1.5950839996        0.0455847499
 O         -3.1288373505       -2.8192923796        0.0779736291
 H          1.2117221497        0.4645573496        1.0878548410
 C          1.0938351896       -0.1682723199        0.2185091806
 C         -0.0849173004       -0.8806785697        0.0514879802
 C         -0.2286452605       -1.6767543591       -1.0799499103
 C          0.7861070295       -1.7515567785       -2.0172332703
 C          1.9591272995       -1.0374853687       -1.8487278899
 C          2.1137484896       -0.2397310394       -0.7229835895
 N          3.2976096696        0.4987723105       -0.5529993191
 S          4.7520601996       -0.2970474094       -0.8878455096
 O          4.9958380296       -0.2229622886       -2.3064146495
 O          4.7264545096       -1.6254980797       -0.3187650403
 C          5.9160091297        0.7329032701       -0.0169609590
 C          6.3848423697        1.8781227804       -0.6322070683
 C          7.2711421298        2.6916631000        0.0555474421
 C          7.6704893198        2.3491903992        1.3390023819
 C          7.1920692997        1.1959408889        1.9426420713
 C          6.3045012197        0.3782039193        1.2611046408
 H          5.9148664696       -0.5324677509        1.6873494903
 H          7.5067453097        0.9309032483        2.9391923711
 H          8.3614924998        2.9834406288        1.8714805923
 H          7.6476397998        3.5877796102       -0.4106854873
 H          6.0541730397        2.0991114510       -1.6335930482
 H          3.3322817197        0.9684208000        0.3415534312
 H          2.7585852395       -1.0938563283       -2.5699741800
 H          0.6633645095       -2.3760765080       -2.8897750007
 H         -1.1378540505       -2.2438052389       -1.2121597306
 C         -1.1669002104       -0.7998377303        1.0988970103
 H         -0.9696005603        0.1007612094        1.7022083608
 C         -1.1491713004       -1.9894514008        2.0491856896
 C         -0.4888064505       -3.2945509807        1.7356875488
 C          0.1181552996       -2.3777158613        2.7522547493
 H          0.0688705796       -2.6517332619        3.7951030792
 H          1.0233577896       -1.8600896212        2.4715376296
 H          0.0080949495       -3.4008382002        0.7841720787
 H         -0.9808227105       -4.1955955509        2.0681920283
 H         -2.0631097804       -2.0478456111        2.6320224496
 O         -2.2092471703        1.7638983800        0.7289228418
