  62
        -98.94319278
 C         -0.8263755094       -1.6928585721       -0.8414867708
 C         -1.9685609157       -2.0613606404       -0.0842792459
 C         -3.1145813067       -1.1495234946       -0.1463169854
 C         -3.0410919593       -0.0416419899       -0.9057203355
 C         -4.1327214438        0.9772237735       -1.0922951968
 C         -4.1996444487        2.0341177285        0.0182405615
 C         -4.7351118370        1.5378666449        1.3615625695
 H         -4.9351661011        2.4198319824        1.9731802709
 H         -5.6861900837        1.0266761597        1.2093054697
 C         -3.7695932498        0.6182189873        2.1223444639
 H         -2.7644715817        0.7181716473        1.7055952724
 H         -3.7154444094        0.9292592364        3.1679889326
 C         -4.1633471265       -0.8588072816        2.1096770564
 H         -5.1067357843       -0.9925731685        2.6440633125
 H         -3.3927924376       -1.4247568836        2.6396105116
 C         -4.3085495820       -1.4590859536        0.7052530715
 H         -4.3750729262       -2.5456366782        0.8016925450
 H         -5.2195539247       -1.0937937368        0.2314369600
 H         -3.2001903745        2.4479290390        0.1598220430
 H         -4.8521762151        2.8359615045       -0.3346012477
 H         -3.9257744369        1.4828079233       -2.0376831983
 H         -5.0945543692        0.4696856487       -1.1737447486
 O         -1.9389342839        0.2683129026       -1.6352905691
 C         -0.7993254871       -0.5313452799       -1.6152944780
 O          0.1218140900       -0.0944723023       -2.3269962094
 O         -2.0276121963       -3.1150165391        0.6053371734
 C          0.3756370038       -2.6131814568       -0.7319046875
 C          1.2492322952       -2.2022833769        0.4263605563
 C          1.6952153433       -3.1402070156        1.3504528044
 C          2.4938051276       -2.7557859627        2.4127783126
 C          2.8723153084       -1.4342423700        2.5642200817
 C          2.4276389274       -0.4872131322        1.6482591437
 C          1.6124229598       -0.8734508663        0.5945731611
 H          1.2701086982       -0.1327648173       -0.1115378940
 N          2.7712786223        0.8647866384        1.7834057446
 S          3.1032559556        1.7719396322        0.4133577622
 O          3.7264443667        0.9670135966       -0.6101948937
 O          3.8961395774        2.8792870970        0.9098971057
 C          1.5325112162        2.4120885944       -0.1183758827
 C          1.2618634872        2.5114349231       -1.4672980115
 C          0.0677940902        3.0894889519       -1.8684584736
 C         -0.8260351712        3.5572862570       -0.9197177585
 C         -0.5394827318        3.4473298391        0.4334018500
 C          0.6521123660        2.8719884339        0.8414877931
 H          0.9091129629        2.7700923757        1.8830129063
 H         -1.2385599648        3.8103490240        1.1707877469
 H         -1.7527951559        4.0087419729       -1.2386736833
 H         -0.1613242462        3.1585596570       -2.9194900570
 H          1.9721873826        2.1174485615       -2.1759484965
 H          3.4125812583        1.0718963853        2.5353752079
 H          3.5028664987       -1.1328950232        3.3868250279
 H          2.8309739294       -3.4923994267        3.1261005392
 H          1.3998853449       -4.1731121856        1.2386568772
 H         -0.0457217338       -3.6020981440       -0.4879735799
 C          1.1573117732       -2.7679830948       -2.0275589479
 C          2.4570015331       -2.0812752013       -2.3066513262
 C          2.4337322608       -3.5566393690       -2.0491414875
 H          2.6135515435       -4.2289795230       -2.8744578841
 H          2.8217946218       -3.9030706928       -1.1030211399
 H          2.6256632213       -1.7322373258       -3.3143801871
 H          2.8748274620       -1.4239024141       -1.5592371278
 H          0.4952058192       -2.8929169479       -2.8790993043
