  62
        -98.93049140
 C         -1.9270625117       -1.7244961844       -0.2657512079
 C         -2.3720510717       -0.6925375522       -1.1286695344
 C         -3.6083001783       -0.0031938475       -0.7119525527
 C         -4.2614503321       -0.3907924121        0.3961479612
 C         -5.5488260570        0.1785704983        0.9311293804
 C         -5.4901131150        1.6371574133        1.4253206630
 C         -5.9006183827        2.6778718900        0.3761346995
 H         -6.5541222283        2.2005154326       -0.3550106297
 H         -6.4916238605        3.4547483829        0.8653721900
 C         -4.7519620882        3.3845886762       -0.3507915662
 H         -4.3309544810        4.1506637661        0.3045775004
 H         -5.1695464982        3.8923789836       -1.2229317953
 C         -3.5982359583        2.4904860942       -0.8061263420
 H         -2.9796995210        2.2209904802        0.0542922358
 H         -2.9546887321        3.0715042169       -1.4706879921
 C         -4.0311370654        1.1921783590       -1.5152929693
 H         -5.1072596116        1.1842163497       -1.6819316858
 H         -3.5301619029        1.1127699007       -2.4823510451
 H         -6.1794645905        1.7138263367        2.2676812844
 H         -4.4913211495        1.8522780426        1.8047520114
 H         -6.3200682062        0.0871345655        0.1631769224
 H         -5.8280579792       -0.4690116125        1.7646578193
 O         -3.8242847513       -1.4203532295        1.1725142010
 C         -2.6425673879       -2.0782435386        0.8822757439
 O         -2.3398768040       -2.9681077314        1.7027835761
 O         -1.8044545642       -0.3501616808       -2.1959041564
 C         -0.6271652634       -2.4934214888       -0.4464136747
 C          0.4347220273       -1.9002603511        0.4462154708
 C          1.2099488543       -2.7173891257        1.2617979798
 C          2.1631378934       -2.1762573920        2.1055846574
 C          2.3728059012       -0.8095782504        2.1363677493
 C          1.6061315128        0.0163943980        1.3226850958
 C          0.6394108687       -0.5274814858        0.4893891552
 H          0.0468742481        0.1301805383       -0.1293322919
 N          1.8034031116        1.4161382250        1.3157368424
 S          2.5250857728        2.0380723429       -0.0644232099
 O          2.7088632360        3.4482341178        0.1966433257
 O          1.7465346738        1.6827308482       -1.2198182060
 C          4.1133248000        1.2247191927       -0.1153328886
 C          4.1913916153       -0.0530905522       -0.6329113307
 C          5.4088309801       -0.7148266892       -0.5995524147
 C          6.5194985931       -0.0921749780       -0.0506743439
 C          6.4250849313        1.1921521052        0.4638950685
 C          5.2096598388        1.8570985285        0.4379910834
 H          5.0887619393        2.8569824785        0.8226977516
 H          7.2912958052        1.6752172955        0.8866075276
 H          7.4645814309       -0.6111985222       -0.0260800064
 H          5.4820155408       -1.7127160877       -1.0008426357
 H          3.3088767829       -0.5032371751       -1.0583091258
 H          2.3083987030        1.7523242928        2.1250370644
 H          3.1160134945       -0.3805669404        2.7917995380
 H          2.7488288137       -2.8226369941        2.7406550776
 H          1.0424159309       -3.7840972084        1.2460469491
 H         -0.8319122942       -3.5095384082       -0.0702667407
 C         -0.1690735524       -2.6415443424       -1.8883798945
 C          0.8263878032       -1.7353121308       -2.5398452481
 C          1.2163090625       -3.1372084909       -2.1864424060
 H          1.3477449364       -3.8512295187       -2.9852292787
 H          1.8845458307       -3.2781469221       -1.3499970255
 H          0.6609960230       -1.4838127003       -3.5765406611
 H          1.2210000731       -0.9083910779       -1.9697370870
 H         -0.9686022690       -3.0066821523       -2.5247930729
