  62
        -98.94345474
 C          1.8813737024        0.7183025959       -0.7341949402
 C          2.1842293954        0.0920787055        0.4991343040
 C          3.6068788459        0.0634092752        0.8622962206
 C          4.5171565211        0.6343680680        0.0524971220
 C          5.9993673661        0.7109508202        0.3009132350
 C          6.7703561581       -0.5450171732       -0.1277369221
 C          6.5703691930       -1.7677035609        0.7685932199
 H          7.3282803094       -2.5002577829        0.4839079425
 H          6.7595243882       -1.4906196303        1.8061607670
 C          5.1853547335       -2.4191963558        0.6513404283
 H          4.6981523308       -2.0763550640       -0.2643084742
 H          5.2988581519       -3.5023442879        0.5670980387
 C          4.2562203261       -2.1517109514        1.8354693738
 H          3.2942722645       -2.6278852729        1.6302974403
 H          4.6721986901       -2.6062323839        2.7373531744
 C          3.9981076993       -0.6648273364        2.1126400404
 H          4.8795758854       -0.2069024354        2.5610056324
 H          3.1652099463       -0.5854952118        2.8155369333
 H          6.4885959604       -0.7945353453       -1.1533247267
 H          7.8328347884       -0.2906180189       -0.1279349433
 H          6.3687249370        1.5570669673       -0.2826450832
 H          6.1843336758        0.9103443663        1.3568266180
 O          4.1800179936        1.2470329777       -1.1143502604
 C          2.8627081233        1.2903804426       -1.5424701385
 O          2.6958884795        1.8661014611       -2.6376235881
 O          1.3165247774       -0.4113212727        1.2578456893
 C          0.4422626085        0.7858244058       -1.2097107663
 C         -0.4188056716        1.4975155430       -0.1941900195
 C          0.0594867707        2.6590255148        0.4071994270
 C         -0.7019480492        3.3387236854        1.3371483265
 C         -1.9661839294        2.8872174852        1.6731549914
 C         -2.4605642472        1.7391969848        1.0678057171
 C         -1.6864224003        1.0498559369        0.1436188358
 H         -2.0889146164        0.1621801984       -0.3147012240
 N         -3.7323865782        1.2495870656        1.3956685715
 S         -4.7143663235        0.5832843324        0.2189397725
 O         -4.5299689649        1.2272267339       -1.0606078956
 O         -6.0484282180        0.6566208030        0.7770299551
 C         -4.2285453789       -1.1268860200        0.1247773823
 C         -3.8727520907       -1.7918021691        1.2813543284
 C         -3.5371879462       -3.1340480311        1.2044664928
 C         -3.5711207464       -3.7880533635       -0.0178005035
 C         -3.9374130025       -3.1080824493       -1.1688670126
 C         -4.2699704213       -1.7640621446       -1.0995736576
 H         -4.5492002367       -1.1940029788       -1.9715505552
 H         -3.9636341544       -3.6181337691       -2.1189212842
 H         -3.3089891196       -4.8328423805       -0.0741885079
 H         -3.2484743151       -3.6650974429        2.0972756515
 H         -3.8523499254       -1.2538035539        2.2142594290
 H         -4.2555549572        1.8148555512        2.0480453179
 H         -2.5636277714        3.4182446821        2.3986163924
 H         -0.3119258549        4.2326011274        1.8006069684
 H          1.0439015036        3.0188676586        0.1391692735
 H          0.4506817717        1.3928111225       -2.1276745134
 C         -0.0524510748       -0.6051726291       -1.5503250242
 C         -1.0836912664       -0.8057508905       -2.6183798294
 C          0.3385999948       -1.2077121496       -2.8650566394
 H          0.5787636329       -2.2595786281       -2.9002950385
 H          0.9368653904       -0.6001376159       -3.5288789393
 H         -1.8183209958       -1.5847315230       -2.4809582843
 H         -1.4622765682        0.0717793923       -3.1211644239
 H         -0.0771949367       -1.2591079215       -0.6859645673
