  62
        -98.93896519
 C          2.1736720700        1.0330274277        0.4663541971
 C          2.3189195756        0.2361705071       -0.6929020274
 C          3.1139986095       -0.9970694228       -0.5419157657
 C          3.6055767194       -1.3159057294        0.6678705105
 C          4.4767288944       -2.4884895270        1.0250808330
 C          5.9641480399       -2.1021184552        0.9561839805
 C          6.6079028795       -2.2605387767       -0.4206236613
 H          7.6122983630       -1.8353870498       -0.3601013426
 H          6.7149457770       -3.3236341915       -0.6459936858
 C          5.8587653776       -1.5892853617       -1.5746241293
 H          6.5651980852       -1.4472637992       -2.3946321969
 H          5.5178789538       -0.5993804048       -1.2661466709
 C          4.6680754861       -2.4156624985       -2.0834807583
 H          4.7276578084       -3.4214831873       -1.6680365502
 H          4.7397904964       -2.5245379963       -3.1676066467
 C          3.2838476289       -1.8178516858       -1.7911472703
 H          2.9983374856       -1.1435789205       -2.6049440273
 H          2.5393412904       -2.6217536163       -1.7821559986
 H          6.5195096553       -2.7224524161        1.6624927527
 H          6.0560836318       -1.0651453001        1.2891305433
 H          4.2598207808       -3.3388028192        0.3853372783
 H          4.2332890944       -2.7537521861        2.0561815879
 O          3.3995554225       -0.5422732872        1.7702520980
 C          2.6866069273        0.6404010157        1.7013415268
 O          2.5706823265        1.2379865179        2.7915050624
 O          1.8192985153        0.5400382149       -1.8074830568
 C          1.3868815534        2.3310408036        0.4061810412
 C         -0.0422294264        2.0342531841        0.0195135554
 C         -0.7079671749        2.6634037432       -1.0231114082
 C         -2.0127237401        2.3160639302       -1.3302627242
 C         -2.6820399152        1.3488510419       -0.6038284301
 C         -2.0273761278        0.7180411185        0.4465254425
 C         -0.7213102832        1.0664861339        0.7504793464
 H         -0.2088165445        0.5706860779        1.5669867358
 N         -2.7048949759       -0.2566701137        1.2037025039
 S         -3.3971317069       -1.5423948974        0.3701671038
 O         -3.4658012859       -2.6213402210        1.3323844401
 O         -2.6916332800       -1.8221750916       -0.8591473518
 C         -5.0476989486       -0.9750471544        0.0179568217
 C         -5.8410878509       -0.5845752827        1.0790627632
 C         -7.1296122268       -0.1434963144        0.8236831217
 C         -7.6010109250       -0.1033839292       -0.4802484463
 C         -6.7931372758       -0.5023313106       -1.5340459333
 C         -5.5025261477       -0.9436712713       -1.2856791047
 H         -4.8354811953       -1.2575596382       -2.0728384040
 H         -7.1611533537       -0.4705455633       -2.5469558525
 H         -8.6040583628        0.2410909511       -0.6764187959
 H         -7.7607846435        0.1674102550        1.6404858335
 H         -5.4369105947       -0.6349177912        2.0763070779
 H         -2.1637400138       -0.6028098082        1.9834171240
 H         -3.6963622504        1.0743264153       -0.8430504934
 H         -2.5156808955        2.8068396767       -2.1494193184
 H         -0.2024118047        3.4166216754       -1.6042301322
 H          1.3837861553        2.7294704345        1.4313994079
 C          2.0740406055        3.3275140631       -0.5027356654
 C          1.8848081999        4.7976887102       -0.2845213674
 C          3.1961928607        4.1533984649        0.0478580584
 H          4.0472923241        4.3543096491       -0.5853342396
 H          3.4509423884        4.0133937285        1.0886477070
 H          1.8381061054        5.4454863031       -1.1466832574
 H          1.2499090401        5.1034889898        0.5331133998
 H          2.1718874331        2.9661051238       -1.5196408533
