  62
        -98.95136323
 C         -2.3407513365        0.0382545217       -0.1131769537
 C         -1.6016367875       -0.5125764291        0.9601237607
 C         -1.4059416048       -1.9666507278        0.9229219688
 C         -1.8367916833       -2.6683828478       -0.1410048296
 C         -1.7132427651       -4.1557327520       -0.3321533346
 C         -0.3426109995       -4.6017340098       -0.8592859719
 C          0.7873713794       -4.5829029446        0.1705771399
 H          0.4670288791       -5.1104609944        1.0701730607
 H          1.6196124373       -5.1438817592       -0.2594901425
 C          1.2845094000       -3.1791977235        0.5430279992
 H          2.3779366419       -3.1745309615        0.5591443137
 H          0.9820439987       -2.4638586861       -0.2258201834
 C          0.8133786101       -2.6796187429        1.9079528109
 H          1.2233450713       -3.3210464582        2.6919314074
 H          1.2120975843       -1.6737941781        2.0518900633
 C         -0.7097100379       -2.6217270913        2.0794983707
 H         -1.1058562417       -3.6270015553        2.2263579917
 H         -0.9275191540       -2.0275263226        2.9707647036
 H         -0.0695583308       -3.9667658785       -1.7060461337
 H         -0.4519978454       -5.6240090333       -1.2296474899
 H         -1.9278794926       -4.6675973411        0.6067505341
 H         -2.4733494873       -4.4377865030       -1.0640632327
 O         -2.4764633787       -2.0894087224       -1.1919400795
 C         -2.7485821501       -0.7322780281       -1.2009997747
 O         -3.3576345680       -0.3349809360       -2.2172650237
 H         -0.5450503921        0.9965066371       -1.6875374477
 C         -0.3569341180        1.8580708116       -1.0635684386
 C         -1.3419913051        2.3008446635       -0.1902740010
 C         -1.0815162504        3.4210293600        0.5889651229
 C          0.1447629429        4.0592509229        0.5089896422
 C          1.1413508330        3.5819120682       -0.3231069718
 C          0.8866640862        2.4657547710       -1.1116895503
 N          1.8742248785        1.9112797635       -1.9529944808
 S          2.3451199004        0.3352407191       -1.6233683864
 O          3.4223203544        0.0646181899       -2.5510683106
 O          1.2079561433       -0.5448725613       -1.6934157514
 C          3.0018464156        0.4162105091        0.0337026958
 C          4.3735555900        0.3997310379        0.2018100850
 C          4.8977554423        0.5388927857        1.4763510417
 C          4.0452777430        0.7069578908        2.5574976343
 C          2.6722036137        0.7280948375        2.3716422374
 C          2.1393229607        0.5796212118        1.0994982137
 H          1.0721748038        0.5827223347        0.9413224404
 H          1.9985678502        0.8560936381        3.2041596527
 H          4.4513948307        0.8214766465        3.5500497207
 H          5.9657932661        0.5199548435        1.6219555765
 H          4.9956246103        0.2709868647       -0.6692472360
 H          2.6987044571        2.4890345905       -2.0476933289
 H          2.1070030804        4.0629564770       -0.3629789153
 H          0.3338261699        4.9290670159        1.1191736835
 H         -1.8365491155        3.7909724215        1.2630010005
 C         -2.6379998179        1.5278419107       -0.1496301297
 H         -3.1690063066        1.7061739295       -1.0966062235
 C         -3.5415610121        1.9174808030        1.0014359488
 C         -4.4892377692        3.0695277565        0.8603514366
 C         -5.0134505459        1.6659356058        0.8803239934
 H         -5.5523567244        1.3260630331        1.7518521023
 H         -5.3673949696        1.2360910687       -0.0458667721
 H         -4.6739119735        3.6948115081        1.7207666721
 H         -4.4975485564        3.5981036995       -0.0809705999
 H         -3.0830944198        1.7437986466        1.9678750836
 O         -1.1390862211        0.1721609407        1.9105558692
