  62
        -98.94524426
 C         -2.4683631593       -1.1952584715       -0.0136614278
 C         -3.2384707902       -0.4522782003        0.9117642818
 C         -3.9185304146        0.7347958398        0.3772865010
 C         -3.7730771726        1.0452505361       -0.9241005067
 C         -4.3552989012        2.2608193418       -1.5843568107
 C         -3.3719887603        3.4389198481       -1.5384216341
 C         -2.7833986399        3.6981569813       -0.1513365886
 H         -2.1519827659        2.8514498264        0.1305842472
 H         -2.1273507655        4.5677995214       -0.2333815929
 C         -3.8283022681        3.9440378858        0.9465413761
 H         -3.5094562235        4.7989568210        1.5464614354
 H         -4.7852971775        4.2044914092        0.4933483577
 C         -4.0262342771        2.7721048367        1.9098103249
 H         -3.0561187791        2.4494629521        2.2970210498
 H         -4.6151309713        3.1268526597        2.7596827572
 C         -4.7471611440        1.5472594730        1.3325683105
 H         -5.6823890937        1.8582069562        0.8632825114
 H         -4.9847037421        0.8794245010        2.1657817509
 H         -2.5472395775        3.2302066632       -2.2243900509
 H         -3.8877556946        4.3345377800       -1.8893349489
 H         -4.5678107462        2.0178147214       -2.6266777470
 H         -5.2846507669        2.5297071635       -1.0861820116
 O         -3.0268397606        0.3062174180       -1.7842260270
 C         -2.3433535560       -0.8217828719       -1.3521648361
 O         -1.6807600392       -1.3919318402       -2.2387115301
 O         -3.3445127108       -0.7617868712        2.1298333922
 C         -1.7116715381       -2.4182957549        0.4732764189
 C         -0.2302847187       -2.2112581994        0.2720799536
 C          0.6044697171       -3.1466386221       -0.3238837530
 C          1.9504888395       -2.8731536441       -0.4987776138
 C          2.4935615629       -1.6727822386       -0.0800673917
 C          1.6690931532       -0.7323664771        0.5242268367
 C          0.3235914113       -1.0108336028        0.7011554442
 H         -0.3183653054       -0.2739373415        1.1697346565
 N          2.2129669678        0.4894375566        0.9645765964
 S          3.0579811127        1.4099608782       -0.1612697884
 O          2.9562001944        2.7723773964        0.3160446607
 O          2.5949083895        1.1628407796       -1.5072309547
 C          4.7390762944        0.8538579608        0.0232373196
 C          5.3270650819        0.9618785876        1.2683873219
 C          6.6337437572        0.5302586422        1.4305529458
 C          7.3270025814        0.0037131134        0.3506694445
 C          6.7238475013       -0.0938573444       -0.8939312908
 C          5.4164037168        0.3353312285       -1.0628145807
 H          4.9033558028        0.2737038976       -2.0095119719
 H          7.2641718513       -0.5028171117       -1.7324998095
 H          8.3436519443       -0.3324879254        0.4795593811
 H          7.1063031246        0.6050364054        2.3966220322
 H          4.7542416385        1.3803760866        2.0789379016
 H          1.5452379072        1.0703919541        1.4516537917
 H          3.5393630339       -1.4544521626       -0.2214018369
 H          2.5857877632       -3.6065266597       -0.9714223696
 H          0.1995824672       -4.0854947967       -0.6636396062
 H         -1.9063276226       -2.4704893412        1.5550840360
 C         -2.2478258705       -3.6746386439       -0.1787177659
 C         -2.1547420982       -4.9913142601        0.5311974986
 C         -3.4815491702       -4.3107387933        0.3856840824
 H         -4.2057654643       -4.7269340987       -0.2983141565
 H         -3.9210967572       -3.8500012208        1.2583679596
 H         -1.9698687845       -5.8798352763       -0.0532819622
 H         -1.6953165905       -5.0009337713        1.5078939355
 H         -2.1400397724       -3.6616860539       -1.2574546712
