  62
        -98.94007396
 C          2.4223862405        0.9179861910        0.1016833107
 C          3.6615147804        0.8392977110        0.7899124009
 C          4.7298638205        0.0898612311        0.1210566809
 C          4.4928551307       -0.4855677987       -1.0713748792
 C          5.4865483908       -1.2586120986       -1.8953948792
 C          5.6258417708       -2.7319367186       -1.4885515094
 C          6.3592419807       -2.9760572888       -0.1690956194
 H          6.5772772307       -4.0445829588       -0.1167433295
 H          7.3141848507       -2.4497265688       -0.1825926092
 C          5.5641951705       -2.5729862190        1.0807163106
 H          4.5086511806       -2.4628211890        0.8211896205
 H          5.6286038505       -3.3690650791        1.8258724505
 C          6.0458581804       -1.2860370491        1.7505384908
 H          7.0585592804       -1.4288842491        2.1340436409
 H          5.3910186103       -1.0752789092        2.5998735208
 C          6.0408913005       -0.0565258089        0.8328564110
 H          6.1855106604        0.8330134910        1.4510354111
 H          6.8582231306       -0.1198603888        0.1146309511
 H          4.6290537709       -3.1762149687       -1.4394179696
 H          6.1765812709       -3.2382809285       -2.2846646895
 H          5.1315828309       -1.2188398584       -2.9274966493
 H          6.4611325508       -0.7720368785       -1.8441457291
 O          3.2863088908       -0.4081357687       -1.6896277394
 C          2.2163304207        0.2752979812       -1.1203416194
 O          1.1776982108        0.2285118012       -1.8041968995
 H         -0.9559145294        1.9482026510       -0.7628041195
 C         -1.0311391795        1.1463820909       -0.0443513496
 C          0.0340826304        0.8798137108        0.8010965905
 C         -0.0785754296       -0.1777940693        1.6987050403
 C         -1.2267323096       -0.9455534494        1.7470409701
 C         -2.2858654495       -0.6782303393        0.8974700300
 C         -2.1811218095        0.3695193408       -0.0065622799
 N         -3.2499493294        0.6312105809       -0.8840936299
 S         -4.7543217795        0.9298204008       -0.2034686501
 O         -5.4736274794        1.7091793509       -1.1877712200
 O         -4.6300407296        1.5174016206        1.1113359200
 C         -5.5027565794       -0.6807424093       -0.0810923804
 C         -5.9569416195       -1.1371421395        1.1406716795
 C         -6.5475584495       -2.3893569895        1.2106756593
 C         -6.6733659593       -3.1579911994        0.0636859791
 C         -6.2137740592       -2.6839984492       -1.1562374708
 C         -5.6239573792       -1.4324860391       -1.2334004505
 H         -5.2565285392       -1.0266806190       -2.1612675904
 H         -6.3128402591       -3.2850003190       -2.0458261609
 H         -7.1323898793       -4.1323986494        0.1203894389
 H         -6.9059670396       -2.7593965797        2.1578236792
 H         -5.8319016796       -0.5066121196        2.0064140596
 H         -3.0312442993        1.3210997210       -1.5883621398
 H         -3.1827049495       -1.2756355893        0.9244999298
 H         -1.2984347596       -1.7614207795        2.4502299099
 H          0.7506411803       -0.3918613994        2.3592836504
 C          1.3034824704        1.6913250509        0.7770455907
 H          1.6476608403        1.8089037807        1.8178900608
 C          1.0954818704        3.0981108309        0.2347908209
 C          2.2644299004        3.9289853210       -0.2001364889
 C          1.2661926106        3.4534823711       -1.2106832390
 H          0.5890524506        4.1780400012       -1.6403287790
 H          1.5549213907        2.6701777113       -1.8938154091
 H          3.2382127804        3.4616040811       -0.1865706788
 H          2.2777792903        4.9766814110        0.0597185513
 H          0.3065191703        3.6189536208        0.7704220409
 O          3.8655657103        1.3753215308        1.9113936210
