  62
        -98.93825174
 C          1.0485132694        1.4268993099        0.1392647796
 C          1.4153997298        0.1500952601        0.6281500297
 C          2.4727989498       -0.5571622498       -0.1126329304
 C          2.9943973496        0.0079184902       -1.2147815605
 C          4.0451082395       -0.5444913996       -2.1455910906
 C          5.2573977998       -1.2415919993       -1.5128669307
 C          5.7010576799       -0.6714370790       -0.1577157509
 H          6.7723673998       -0.4645843688       -0.1931179610
 H          5.1935774497        0.2753820009        0.0347785991
 C          5.4464503003       -1.6327370590        1.0058088493
 H          6.0930267903       -1.3523649587        1.8408852092
 H          5.7324090405       -2.6402232389        0.6960318194
 C          4.0119485003       -1.6585935992        1.5323606195
 H          3.7924927802       -0.7233863292        2.0545443594
 H          3.9398406006       -2.4611985692        2.2701929896
 C          2.9195232202       -1.8663506996        0.4707596297
 H          3.2460092903       -2.5592552996       -0.3005027103
 H          2.0410261704       -2.2822869798        0.9695662399
 H          5.0487139701       -2.3042553693       -1.3988733106
 H          6.0773062197       -1.1578755492       -2.2282618809
 H          3.5562222196       -1.2352690898       -2.8385139005
 H          4.3819444693        0.3133750604       -2.7325929708
 O          2.5793712292        1.2217284901       -1.6753661306
 C          1.6040148291        1.9594978599       -1.0230538305
 O          1.3370851588        3.0450876398       -1.5718366806
 H         -1.5174456802        0.0886162493        0.2744561501
 C         -1.9065683705        0.9728580592       -0.2099407899
 C         -1.2748801508        2.1936633994       -0.0010423601
 C         -1.7798652011        3.3235053392       -0.6299059002
 C         -2.8869889812        3.2244365088       -1.4549911600
 C         -3.5195944410        2.0108033987       -1.6513953298
 C         -3.0251559806        0.8743750288       -1.0199773597
 N         -3.6312301204       -0.3782968613       -1.2020423595
 S         -3.8000862899       -1.4009592412        0.1134874606
 O         -4.8760230398       -2.2947089715       -0.2644818591
 O         -4.0009424199       -0.6601949611        1.3373317106
 C         -2.2909421297       -2.3394979009        0.1833865505
 C         -1.7657573598       -2.8397864309       -0.9914165795
 C         -0.6308453396       -3.6315174306       -0.9306404596
 C         -0.0504111993       -3.9161601703        0.2961237604
 C         -0.5886552493       -3.4034677003        1.4657185504
 C         -1.7201307594       -2.6062973606        1.4111386005
 H         -2.1618719394       -2.1763454306        2.2959607105
 H         -0.1297185791       -3.6123729701        2.4187861503
 H          0.8289661308       -4.5395667001        0.3405274003
 H         -0.2024853096       -4.0255656506       -1.8382943796
 H         -2.2462362699       -2.6006028211       -1.9257539395
 H         -4.4639122904       -0.3682017116       -1.7733041994
 H         -4.3871304511        1.9383531884       -2.2898991497
 H         -3.2667395715        4.1073881187       -1.9466372001
 H         -1.2986071413        4.2766634793       -0.4873051204
 C         -0.0418165406        2.1949711497        0.8676745397
 H         -0.2664323804        1.6014635498        1.7656591498
 C          0.4177687791        3.5712412999        1.2949799395
 C         -0.3344920809        4.2983944898        2.3679586395
 C          1.0296935793        3.7470129302        2.6511614993
 H          1.8532572591        4.4368434704        2.7591996091
 H          1.1067513296        2.8731103603        3.2816265694
 H         -1.1853444307        3.7974919397        2.8051467897
 H         -0.4489106112        5.3683800798        2.2847107494
 H          0.8374141288        4.1518278599        0.4823418193
 O          0.8791471801       -0.3802846300        1.6373528898
