  62
        -98.93200118
 C         -2.2314089495       -0.7086543326       -0.4676637027
 C         -3.5755839692       -1.0987015370       -0.2443578248
 C         -4.4594553771       -0.1363904674        0.4407751553
 C         -3.9364056173        1.0286861243        0.8644303642
 C         -4.6357818396        2.1717261043        1.5507836979
 C         -5.4883636789        3.0097440260        0.5845095544
 C         -6.3373439039        2.1992852724       -0.3913637293
 H         -6.8089036768        2.9019704444       -1.0833981263
 H         -5.6856096168        1.5524040837       -0.9813851500
 C         -7.4418477834        1.3606545592        0.2473643055
 H         -8.0228041651        0.9172564427       -0.5653762393
 H         -8.1084310931        2.0164298210        0.8118314061
 C         -6.9770345185        0.2303738281        1.1684903200
 H         -7.8370615572       -0.4234359886        1.3404899130
 H         -6.6816225815        0.6123147725        2.1420961260
 C         -5.8718283880       -0.6484575636        0.5913744400
 H         -5.7909703854       -1.5544644184        1.2042070261
 H         -6.1747174128       -1.0007916051       -0.4013536030
 H         -4.8137557478        3.6374703277       -0.0029013243
 H         -6.1319087158        3.6654829002        1.1733107658
 H         -3.8546217723        2.8100294699        1.9698215175
 H         -5.2367873380        1.8006674764        2.3756448219
 O         -2.6251238623        1.3445656775        0.6711409293
 C         -1.7405710257        0.5074051490        0.0098891713
 O         -0.5873791745        0.9697433534       -0.0776235590
 O         -4.0333761284       -2.2149471174       -0.6096757849
 C         -1.3263006331       -1.7072382667       -1.1689009892
 C         -0.0821149755       -1.9249095679       -0.3474382619
 C         -0.1493490467       -2.7257912569        0.7888387532
 C          0.9602276905       -2.9023290612        1.5935575022
 C          2.1577937539       -2.2807719344        1.2853482103
 C          2.2308736655       -1.4705434821        0.1608659803
 C          1.1182290801       -1.3062956866       -0.6549075209
 H          1.1780401738       -0.6585915827       -1.5155376186
 N          3.4421681595       -0.8353422399       -0.1720692244
 S          4.3772310617       -0.2036580217        1.0835753979
 O          5.1251440934       -1.2849798339        1.6778327031
 O          3.5629114168        0.5704034725        1.9934866700
 C          5.4792923425        0.8581011376        0.1706078636
 C          6.6783514987        0.3493094460       -0.2904445492
 C          7.5159905537        1.1724349053       -1.0263633885
 C          7.1421623964        2.4819574122       -1.2883771112
 C          5.9354713771        2.9787096512       -0.8182908900
 C          5.0925765765        2.1607225231       -0.0825431125
 H          4.1488739322        2.5074376665        0.3088686252
 H          5.6477019317        3.9977294094       -1.0215231841
 H          7.7954531085        3.1215726079       -1.8605702977
 H          8.4555531234        0.7910809821       -1.3922004206
 H          6.9286035284       -0.6718552607       -0.0550964115
 H          3.3077841579       -0.1421498798       -0.8960256536
 H          3.0270686159       -2.3970886485        1.9124284619
 H          0.8941763072       -3.5250210380        2.4734263100
 H         -1.0886795239       -3.1989055117        1.0412334113
 H         -1.9054947419       -2.6447842821       -1.1633199533
 C         -1.0321001220       -1.3916019958       -2.6275707649
 C         -2.0982874399       -0.8141597742       -3.5086329897
 C         -0.8920227224        0.0021080978       -3.1591228914
 H         -0.1560819907        0.1793138657       -3.9301803529
 H         -1.0051436749        0.8223501972       -2.4681487102
 H         -2.1958529028       -1.1884747979       -4.5164069576
 H         -3.0389587045       -0.5580349693       -3.0431520619
 H         -0.3916524330       -2.1456863359       -3.0753238668
