  62
        -98.94133757
 C         -2.4812086962       -1.3186364683        0.0268974507
 C         -3.1280640057       -0.5679521401        1.0438338629
 C         -3.8946014860        0.6020945248        0.6054352415
 C         -3.9581357535        0.9020910258       -0.7040312289
 C         -4.7151608567        2.0490249033       -1.3163136342
 C         -3.9522731613        3.3807135584       -1.2955034421
 C         -3.8401069276        4.0444856285        0.0775654083
 H         -3.4847628692        5.0634342139       -0.0881502934
 H         -4.8303720494        4.1133102420        0.5289564831
 C         -2.8786509184        3.3403754328        1.0455366854
 H         -2.2162780778        2.6744307282        0.4860380250
 H         -2.2395710072        4.0831674823        1.5286591537
 C         -3.5648526007        2.5431778447        2.1552208829
 H         -4.1140582483        3.2246763126        2.8086528873
 H         -2.7900584566        2.0539714504        2.7510701155
 C         -4.5316245607        1.4624662143        1.6542923832
 H         -5.4415354426        1.9212610582        1.2680900381
 H         -4.7922211364        0.8187964213        2.4979176598
 H         -4.4758358247        4.0666466396       -1.9655844129
 H         -2.9511171549        3.2179641390       -1.7026764766
 H         -4.9043704187        1.7767401432       -2.3569222230
 H         -5.6723339548        2.1690189457       -0.8080486464
 O         -3.3341059766        0.1551521728       -1.6511843901
 C         -2.5617252916       -0.9514370074       -1.3162360824
 O         -2.0277353394       -1.4964232983       -2.3021292733
 O         -3.0751418899       -0.8742108602        2.2644586954
 C         -1.6735302336       -2.5224689348        0.4840537556
 C         -0.2333056418       -2.1271542466        0.6871052932
 C          0.3963089616       -2.2927968250        1.9143904290
 C          1.7057216778       -1.8806283457        2.0954460401
 C          2.4110520547       -1.2949408793        1.0593841981
 C          1.7886579925       -1.1221586672       -0.1701367438
 C          0.4800740197       -1.5403637801       -0.3502396486
 H         -0.0008701822       -1.3984890669       -1.3075973851
 N          2.4964353889       -0.5087683360       -1.2285420399
 S          2.8718323363        1.1146064214       -0.9734067965
 O          1.9010502536        1.7471191100       -0.1079514430
 O          3.0297176163        1.6888736432       -2.2918588807
 C          4.4594775877        1.0517727042       -0.1707912590
 C          5.5177109287        0.5004547541       -0.8667666517
 C          6.7597646228        0.4380223031       -0.2555896121
 C          6.9217833969        0.9269979559        1.0323959594
 C          5.8500546785        1.4807928740        1.7159786951
 C          4.6043107523        1.5451288381        1.1108902826
 H          3.7402768330        1.9610314183        1.6040973535
 H          5.9777970473        1.8609258956        2.7167737630
 H          7.8893817498        0.8767489291        1.5062161176
 H          7.5956318132        0.0087165533       -0.7839818366
 H          5.3480866217        0.1381193756       -1.8669133239
 H          2.0120992363       -0.5947330140       -2.1124084521
 H          3.4298473305       -0.9698347369        1.1940868598
 H          2.1810895034       -2.0137899823        3.0550934546
 H         -0.1546895089       -2.7294746057        2.7344000707
 H         -2.0897200968       -2.7731071154        1.4724409005
 C         -1.8516797698       -3.7423923936       -0.4096403850
 C         -0.7446753197       -4.3632462479       -1.2035740713
 C         -1.2736397641       -5.0617672417        0.0105113747
 H         -1.8680619473       -5.9533466693       -0.1182182215
 H         -0.6492737399       -5.0678209795        0.8913015405
 H         -0.9909408792       -4.7529512783       -2.1796437160
 H          0.2380122120       -3.9220417683       -1.1488665887
 H         -2.8355782254       -3.7671709215       -0.8669222628
