  62
        -98.93197366
 C          2.3440668003       -1.3357085736        0.0282788800
 C          2.3506242721        0.0596983252        0.2493471492
 C          3.6666641199        0.7278657929        0.2037211393
 C          4.7627375924       -0.0034292774       -0.0677855242
 C          6.2001791877        0.4437265256       -0.1583698424
 C          6.4702324292        1.7532812033       -0.9152641797
 C          6.8946380379        2.9062783338       -0.0039741121
 H          7.5626120149        2.5134599120        0.7652604499
 H          7.4652221070        3.6265463298       -0.5943846479
 C          5.7473883435        3.6631178475        0.6630593592
 H          5.2245023146        4.2616336575       -0.0860848171
 H          6.1841781182        4.3564573792        1.3856336676
 C          4.7187217780        2.7890495503        1.3833705016
 H          4.2144573858        3.4096039264        2.1273449978
 H          5.2131450673        1.9831978258        1.9246782676
 C          3.6422962139        2.2114728545        0.4516453714
 H          2.6495523884        2.4036155315        0.8715011044
 H          3.6632870268        2.7304611290       -0.5111497883
 H          7.2806507583        1.5676553096       -1.6219316000
 H          5.5931752149        2.0327796852       -1.4968213020
 H          6.6049756403        0.5109311599        0.8544911560
 H          6.7220363719       -0.3819567489       -0.6472551723
 O          4.7039073823       -1.3488252866       -0.2871708468
 C          3.5120348903       -2.0464665365       -0.2417063097
 O          3.6191093597       -3.2694108486       -0.4630343572
 O          1.3060524604        0.7262674097        0.4799263529
 C          1.0389618591       -2.1088117290        0.0836676041
 C          0.0476076824       -1.5200748954       -0.8899656689
 C          0.4354823389       -1.3514885905       -2.2171171851
 C         -0.4333285708       -0.8077920484       -3.1422961491
 C         -1.7051065007       -0.4158761681       -2.7621738052
 C         -2.1075442414       -0.5916944179       -1.4441255790
 C         -1.2362219636       -1.1531176064       -0.5198598976
 H         -1.5695925699       -1.2726816033        0.4963523092
 N         -3.4154862242       -0.2446233623       -1.0506010341
 S         -3.6632422418        0.5950644603        0.3950202499
 O         -2.9796506055        1.8695434152        0.3605857777
 O         -3.3667592117       -0.2693652429        1.5075717361
 C         -5.4263088230        0.8487567955        0.2908272639
 C         -6.2634890261       -0.1972244461        0.6293975929
 C         -7.6338381041       -0.0190757041        0.5268989108
 C         -8.1420215120        1.1949815815        0.0889559459
 C         -7.2897677646        2.2364521040       -0.2452244723
 C         -5.9179422841        2.0642100667       -0.1455100200
 H         -5.2179379000        2.8487473406       -0.3846051882
 H         -7.6875610071        3.1803598157       -0.5816273284
 H         -9.2090644451        1.3313311075        0.0106834276
 H         -8.2997321022       -0.8253630785        0.7889755954
 H         -5.8232624295       -1.1189218516        0.9721739831
 H         -3.9108653162        0.2333557968       -1.7930557120
 H         -2.3804497145        0.0214128584       -3.4824064242
 H         -0.1164171801       -0.6781448867       -4.1664227336
 H          1.4351581700       -1.6458736168       -2.5086920399
 H          1.2777978534       -3.1309344081       -0.2459471588
 C          0.5293326499       -2.1655758662        1.5083836165
 C         -0.3165854321       -3.3165697842        1.9600038284
 C          1.0962785263       -3.1897237776        2.4430507803
 H          1.2687996032       -2.9094057691        3.4713427840
 H          1.8382846754       -3.8657369901        2.0431437332
 H         -1.1195172052       -3.1199837544        2.6545249463
 H         -0.5369768614       -4.0868775802        1.2364900271
 H          0.3120087254       -1.1834315090        1.9148034883
