  62
        -98.94360428
 C          1.8038574069        0.8356320946        0.8353228706
 C          2.0170380809        0.4054169976       -0.4965433596
 C          3.4174058035        0.3905145247       -0.9444652987
 C          4.3847697844        0.7956407739       -0.1014825336
 C          5.8534026676        0.7803576707       -0.4105134856
 C          6.4977932775       -0.5437095293        0.0233816442
 C          5.7407428165       -1.7837481400       -0.4523079781
 H          6.3025740949       -2.6571252963       -0.1139237211
 H          4.7664391841       -1.8181686219        0.0407494199
 C          5.5407404050       -1.8615704625       -1.9722966381
 H          6.2404995120       -1.1911130730       -2.4725539404
 H          5.7711621403       -2.8762782956       -2.3037691039
 C          4.1179702089       -1.5515560443       -2.4415279739
 H          3.4047675542       -2.1547977878       -1.8738873368
 H          4.0347086142       -1.8474613336       -3.4906644175
 C          3.6888739040       -0.0820466530       -2.3449303315
 H          4.4339589162        0.5519291921       -2.8296869729
 H          2.7427067357        0.0231742914       -2.8834632832
 H          7.5205493792       -0.5712877431       -0.3569322585
 H          6.5407220423       -0.5665887251        1.1148549987
 H          5.9967256538        0.9336135354       -1.4782710189
 H          6.3277765396        1.5997237851        0.1321979365
 O          4.1364464769        1.2244075334        1.1630600796
 C          2.8463275757        1.2407219692        1.6676995501
 O          2.7596544548        1.6279472489        2.8511206703
 H         -2.1019521390        0.1472377074        0.4807143706
 C         -1.5140270562       -0.6947040982        0.8031434748
 C         -0.2342608465       -0.5014221059        1.2970034122
 C          0.4902519035       -1.6116542198        1.7241096529
 C         -0.0478271641       -2.8806033178        1.6399595886
 C         -1.3234287211       -3.0702408488        1.1373359299
 C         -2.0592119348       -1.9691695465        0.7176955959
 N         -3.3383013310       -2.1332712432        0.1735861263
 S         -4.5210202365       -0.9697416721        0.3409969482
 O         -4.4964885882       -0.3639450615        1.6521598169
 O         -5.7474565547       -1.6525507405       -0.0132775230
 C         -4.1537080876        0.2479486315       -0.9051619457
 C         -3.6350220364       -0.1580489673       -2.1183603364
 C         -3.3782050706        0.7973831315       -3.0885079222
 C         -3.6492386839        2.1332015303       -2.8346739429
 C         -4.1775245715        2.5239485147       -1.6141159159
 C         -4.4338617587        1.5736506491       -0.6383970551
 H         -4.8338399684        1.8338417302        0.3290262148
 H         -4.3872875302        3.5637082599       -1.4185476417
 H         -3.4452277016        2.8744021704       -3.5913553230
 H         -2.9624718663        0.4975596358       -4.0370060560
 H         -3.4268497128       -1.2021099133       -2.2822990538
 H         -3.7066388085       -3.0721313898        0.1909410930
 H         -1.7432409953       -4.0620852548        1.0664745547
 H          0.5286499324       -3.7318745729        1.9702385200
 H          1.4869073992       -1.4641480222        2.1186505157
 C          0.3942468743        0.8670951029        1.3970628758
 H          0.4941608803        1.1185335118        2.4634919426
 C         -0.4097406361        1.9539764040        0.7136406129
 C         -1.5329569530        2.6329499483        1.4360554637
 C         -0.2535046539        3.3692975480        1.1787578661
 H         -0.2512410476        4.1575001690        0.4412233835
 H          0.4142327902        3.5462995208        2.0096123897
 H         -1.7460557438        2.3133000896        2.4451957648
 H         -2.4088994425        2.9155368220        0.8721185444
 H         -0.5150788025        1.7855114828       -0.3522628745
 O          1.0901177842        0.0519759975       -1.2701735611
