  62
        -98.93283424
 C         -2.3867248327       -1.1226799444        0.1091129948
 C         -2.6972904009       -0.0006069177       -0.6951134207
 C         -4.1232927660        0.3554874668       -0.7791166978
 C         -5.0272607288       -0.3929686755       -0.1208326325
 C         -6.5018626746       -0.1149926978       -0.0450712987
 C         -6.7721752815        1.0225404529        0.9605257419
 C         -7.3382823212        2.2967388206        0.3335252544
 H         -8.3932068672        2.1388201968        0.0997819948
 H         -7.2821096550        3.0848653352        1.0873595541
 C         -6.6424009726        2.7776064510       -0.9434208470
 H         -6.9928235920        2.1927519833       -1.7950771021
 H         -6.9695620203        3.8051243026       -1.1159338981
 C         -5.1085520520        2.7460626735       -0.9245317006
 H         -4.7439401958        3.6390901474       -1.4361358885
 H         -4.7341555140        2.7921408492        0.0983200160
 C         -4.4829814287        1.5343794853       -1.6407006231
 H         -3.5365695929        1.8461277038       -2.0926398724
 H         -5.1419386055        1.2080622114       -2.4501411834
 H         -7.4720657668        0.6759757058        1.7223467831
 H         -5.8369984499        1.2531714455        1.4751017023
 H         -6.8776045508        0.1476108348       -1.0313786351
 H         -6.9886190128       -1.0341949914        0.2812886287
 O         -4.6875150706       -1.4701934122        0.6351315382
 C         -3.3661432365       -1.8599287630        0.7728007311
 O         -3.1952773145       -2.8573394310        1.5031178259
 O         -1.8294293818        0.6708604375       -1.3126000487
 C         -0.9454050471       -1.5715958946        0.2558672229
 C         -0.0819891424       -0.4536279385        0.7886599276
 C         -0.5453566578        0.3201494024        1.8499680764
 C          0.2307739201        1.3332201339        2.3780736486
 C          1.4964783824        1.5827245412        1.8770314678
 C          1.9713956078        0.8128138375        0.8229128941
 C          1.1817274664       -0.1937172946        0.2833447195
 H          1.5781011802       -0.7727177620       -0.5337859857
 N          3.2459293799        1.0439284689        0.2805491466
 S          4.1439730721       -0.2910452141       -0.2336903493
 O          3.7740702728       -0.6127379927       -1.5887832044
 O          4.0336340721       -1.3612541445        0.7315902662
 C          5.7907927739        0.3945483845       -0.2064753847
 C          6.5778392096        0.2127234234        0.9152679910
 C          7.8461635416        0.7708779132        0.9423618704
 C          8.3027875752        1.4996029028       -0.1456521987
 C          7.5018789559        1.6728638266       -1.2647628662
 C          6.2329335554        1.1167179755       -1.2988287717
 H          5.5790367210        1.2167624088       -2.1495074130
 H          7.8614987531        2.2373688953       -2.1098862330
 H          9.2904240796        1.9324606051       -0.1225436755
 H          8.4724170413        0.6347187406        1.8092987341
 H          6.1850772216       -0.3702240596        1.7328517149
 H          3.8019526998        1.6781320250        0.8376624549
 H          2.1061805165        2.3697008442        2.2943113580
 H         -0.1478635488        1.9282606654        3.1957410810
 H         -1.5285313410        0.1162502160        2.2532078744
 H         -0.9507948181       -2.3773754349        1.0060385575
 C         -0.4442934525       -2.1383389581       -1.0567531816
 C          0.6116141090       -3.2011157230       -1.0694029275
 C         -0.8019112479       -3.5444577902       -1.4293981660
 H         -1.0340533144       -3.7619361495       -2.4610724237
 H         -1.3880004161       -4.1100444808       -0.7194085839
 H          1.3567016233       -3.1764656400       -1.8511409839
 H          0.9934647065       -3.5383263999       -0.1170219822
 H         -0.4297666998       -1.3980979501       -1.8493384401
