  62
        -98.94509730
 C          1.5320477205        0.5009300663       -0.5632535546
 C          2.7687899882        1.1136804915       -0.2319300590
 C          3.7152226868        0.3033043393        0.5437677072
 C          3.3572927539       -0.9367448009        0.9228581509
 C          4.2347492844       -1.8894398149        1.6811844340
 C          5.0466151374       -2.7772150214        0.7274745689
 C          5.7654061032       -2.0012854107       -0.3762897991
 H          6.3278559427       -2.7256143520       -0.9693050409
 H          5.0211563007       -1.5522802159       -1.0378316502
 C          6.7157265106       -0.9081701361        0.1320162745
 H          7.6524129769       -0.9713749742       -0.4257798336
 H          6.9519930239       -1.0818801653        1.1824427309
 C          6.1906168884        0.5184486834       -0.0394555997
 H          7.0171739678        1.2094994017        0.1460873275
 H          5.8651153710        0.6672182077       -1.0720099104
 C          5.0399457558        0.9225874958        0.8909814724
 H          5.3083251662        0.7017416176        1.9262518619
 H          4.8990566191        2.0032367141        0.7960660129
 H          4.3666247286       -3.4914525644        0.2574934585
 H          5.7754884409       -3.3382742341        1.3152109495
 H          4.9040437479       -1.3228741813        2.3259424326
 H          3.5978291174       -2.5224426468        2.3017017063
 O          2.1582550741       -1.4850298630        0.6080712346
 C          1.2171912196       -0.7921333798       -0.1433953647
 O          0.1841165040       -1.4493863672       -0.3681331675
 H         -1.7162692114        0.2703663056       -0.2423843887
 C         -1.5412462855        1.2804636389        0.0853381561
 C         -0.4327080965        1.9736753172       -0.3806188695
 C         -0.2024753229        3.2641148014        0.0860028016
 C         -1.0632901573        3.8466142453        0.9976264198
 C         -2.1644329878        3.1516358273        1.4634961798
 C         -2.4007434599        1.8583000749        1.0093060139
 N         -3.5252171709        1.1486790193        1.4507957361
 S         -3.4649001857       -0.5073311802        1.7099460516
 O         -4.5590963883       -0.7508275463        2.6297103066
 O         -2.1599735607       -0.9302149229        2.1582053573
 C         -3.8992784261       -1.1992576668        0.1289380219
 C         -3.0067952314       -1.9838918048       -0.5720316960
 C         -3.3951951174       -2.4950305962       -1.8019484434
 C         -4.6575224319       -2.2183210540       -2.3025061451
 C         -5.5434335078       -1.4314134639       -1.5812277035
 C         -5.1630914064       -0.9166316324       -0.3533284017
 H         -5.8216062929       -0.3083987675        0.2440059208
 H         -6.5249265470       -1.2181650041       -1.9729740104
 H         -4.9511229508       -2.6183997341       -3.2603557326
 H         -2.7017330052       -3.1029701367       -2.3613704965
 H         -2.0222193437       -2.1633582090       -0.1677220068
 H         -4.0686840609        1.6162673207        2.1615846816
 H         -2.8367171574        3.6022585542        2.1780213801
 H         -0.8736439265        4.8484400870        1.3525352454
 H          0.6708586251        3.7979333326       -0.2600518996
 C          0.5407356090        1.3451448373       -1.3502208740
 H          1.1410719152        2.1568434441       -1.7839858603
 C         -0.1503875134        0.6050034842       -2.4758739032
 C         -0.8688942046        1.3981748040       -3.5249366485
 C          0.4086650453        0.6918549973       -3.8632078916
 H          0.3648120245       -0.1856354958       -4.4906158751
 H          1.2979159381        1.2877591895       -4.0095062141
 H         -1.7939916888        1.0083589604       -3.9203421217
 H         -0.8447601868        2.4740368909       -3.4387969195
 H         -0.5813311733       -0.3411640591       -2.1779284820
 O          3.0700412661        2.2877579261       -0.5777996749
