  62
        -98.93906906
 C          2.5010099262        1.2333775964        0.3426050192
 C          2.5260273446        0.4109446236       -0.8065977337
 C          3.2585052180       -0.8677242964       -0.6947896726
 C          3.8463575536       -1.1791172838        0.4752700115
 C          4.6094670057       -2.4261632953        0.8363240114
 C          3.6904539837       -3.6314851358        1.0902725112
 C          2.5722933775       -3.8139791508        0.0670429163
 H          1.9362352349       -4.6342738441        0.4112505943
 H          1.9493109702       -2.9168502941        0.0454402325
 C          3.0352895498       -4.1446200811       -1.3500428537
 H          3.6290828043       -5.0611257600       -1.3277130318
 H          2.1382090108       -4.3432574500       -1.9423439099
 C          3.8422929950       -3.0567887477       -2.0626205660
 H          4.8722550524       -3.0396539679       -1.7164722327
 H          3.8752161511       -3.3204223533       -3.1236645210
 C          3.2356433830       -1.6596894406       -1.9796725833
 H          3.7233358784       -1.0215849222       -2.7264291865
 H          2.1832883967       -1.7059441523       -2.2849098048
 H          3.2254988070       -3.5030563898        2.0709869141
 H          4.3047797009       -4.5328003247        1.1239794618
 H          5.3406113516       -2.6530748212        0.0663932740
 H          5.1529375317       -2.2042591295        1.7574549232
 O          3.7801175901       -0.3587349935        1.5642950982
 C          3.1060981067        0.8462375015        1.5361435989
 O          3.1105862040        1.4689735115        2.6186207422
 H          0.1926757227        0.7936635996        1.5368750835
 C         -0.3576580107        1.3149473537        0.7616304517
 C          0.2933718880        2.2888580090        0.0135530696
 C         -0.4223173603        2.9508145456       -0.9743160501
 C         -1.7469677061        2.6268793137       -1.2146754316
 C         -2.3862204401        1.6486811468       -0.4758322046
 C         -1.6819545154        0.9869983396        0.5220118206
 N         -2.3269963841       -0.0053880898        1.2871439588
 S         -2.9900645266       -1.2998709052        0.4411047018
 O         -3.0303431264       -2.3909141498        1.3912191962
 O         -2.2806055305       -1.5486239887       -0.7927791804
 C         -4.6540201575       -0.7672363251        0.0997893891
 C         -5.1126557471       -0.7275720862       -1.2021803139
 C         -6.4140583820       -0.3134088794       -1.4410568268
 C         -7.2282739050        0.0512136026       -0.3797373843
 C         -6.7525574684        0.0037511935        0.9224184676
 C         -5.4534386214       -0.4107359970        1.1683573757
 H         -5.0450366232       -0.4657178664        2.1636196905
 H         -7.3885365778        0.2884152128        1.7450179228
 H         -8.2396948132        0.3746275674       -0.5686281138
 H         -6.7854421870       -0.2758093653       -2.4525333345
 H         -4.4400691586       -1.0133992634       -1.9952020789
 H         -1.7570803515       -0.3525253188        2.0459601079
 H         -3.4152526864        1.3899979537       -0.6650595495
 H         -2.2887111966        3.1431791171       -1.9923620764
 H          0.0601832662        3.7106862642       -1.5663906071
 C          1.7485820356        2.5523454654        0.3181996411
 H          1.8156284186        2.9579268427        1.3384744680
 C          2.4076320749        3.5231821374       -0.6380019981
 C          2.2781152655        4.9996825998       -0.4181791738
 C          3.5869245786        4.3159729311       -0.1636071533
 H          4.4027155434        4.4869069660       -0.8497650309
 H          3.9015716824        4.1716609553        0.8600015296
 H          2.1982664047        5.6444906135       -1.2802015221
 H          1.7051529831        5.3293109285        0.4351971780
 H          2.4299821704        3.1533867529       -1.6564541919
 O          1.9603485706        0.7201188006       -1.8878241355
