  62
        -98.93104955
 C          2.3307662701        1.1325647896        0.2217979498
 C          2.5288570599       -0.0625869805        0.9509885896
 C          3.5006879899       -1.0256712204        0.4027888896
 C          4.0830368801       -0.7594488103       -0.7803700503
 C          5.1077225102       -1.5670398102       -1.5367029803
 C          4.8944661201       -3.0872112902       -1.5962535406
 C          5.8957759600       -3.8770453004       -0.7511018806
 H          5.9788952700       -4.8861900303       -1.1606722007
 H          6.8766278200       -3.4063170204       -0.8448797204
 C          5.5387110898       -4.0078040606        0.7284739494
 H          4.6928764197       -4.6899970906        0.8375703792
 H          6.3920273897       -4.4647522607        1.2351230894
 C          5.1948129797       -2.6952714207        1.4351072495
 H          5.3577086696       -2.8385751409        2.5054062995
 H          5.8690441498       -1.9017310807        1.1146278298
 C          3.7362381998       -2.2546838606        1.2380452394
 H          3.1486678898       -3.0808661505        0.8279094892
 H          3.2883958897       -2.0201175407        2.2086844294
 H          5.0150754102       -3.3973776000       -2.6354805706
 H          3.8743000201       -3.3308181002       -1.3043218407
 H          5.1013720103       -1.1522819001       -2.5473185402
 H          6.0934637301       -1.3478171303       -1.1181337001
 O          3.8127801503        0.3783691598       -1.4811394502
 C          2.9487236602        1.3517232298       -1.0090039301
 O          2.8259093004        2.3324367799       -1.7652192400
 H         -0.5264092600        0.3347021197        0.7973643693
 C         -0.7652651999        1.1188521098        0.0892410893
 C          0.1182898502        2.1828007498       -0.0524206904
 C         -0.1895549897        3.1847984700       -0.9622196503
 C         -1.3491534096        3.1102794201       -1.7150960204
 C         -2.2237858996        2.0484312201       -1.5750287107
 C         -1.9293021998        1.0445230800       -0.6605863608
 N         -2.8126770599       -0.0496579700       -0.5085726811
 S         -4.3926534999        0.3393068400       -0.0410183313
 O         -5.0316687898        1.0451815302       -1.1212769712
 O         -4.3808166601        1.0154707998        1.2390400288
 C         -5.1085148500       -1.2835002000        0.1255950184
 C         -5.5291226099       -1.9393663098       -1.0155502118
 C         -6.0716051100       -3.2087562598       -0.8963344921
 C         -6.1835640702       -3.7977580600        0.3545057178
 C         -5.7578234203       -3.1265043902        1.4906962680
 C         -5.2129639702       -1.8569042502        1.3781914983
 H         -4.8778990203       -1.2950554103        2.2355144384
 H         -5.8486415505       -3.5854462203        2.4620976179
 H         -6.6080858602       -4.7851115400        0.4451236676
 H         -6.4063248199       -3.7331686896       -1.7767851622
 H         -5.4316919798       -1.4387326096       -1.9644955817
 H         -2.4416161000       -0.7185760401        0.1552201088
 H         -3.1347311396        1.9930544903       -2.1477605008
 H         -1.5751330894        3.8925709103       -2.4240894303
 H          0.4844805004        4.0150584299       -1.0921921900
 C          1.3747668501        2.1718242996        0.7833579498
 H          1.1054773899        1.8052855595        1.7841005797
 C          2.0308837401        3.5279664495        0.9252948501
 C          1.3949743500        4.5607224394        1.8055075702
 C          2.6695602699        3.8966440193        2.2293871902
 H          3.5826900000        4.4723022193        2.2103508405
 H          2.6271888298        3.1721714292        3.0296262801
 H          1.4311639701        5.5944660595        1.4977492203
 H          0.4839033099        4.2862491094        2.3160048700
 H          2.5229775502        3.8625191897        0.0204441102
 O          1.9225998498       -0.3158113706        2.0286543495
