  62
        -98.94571481
 C          2.4859762599        1.1445850239       -0.0353273863
 C          3.1000911284        0.2647986415        0.8875175572
 C          3.6248009385       -0.9861484365        0.3307907113
 C          3.5006676476       -1.2336919590       -0.9860615183
 C          3.9905164146       -2.4612922969       -1.7049297195
 C          3.0128416929       -3.6432653927       -1.6467183851
 C          2.9157655508       -4.3396864485       -0.2887101799
 H          2.3685587640       -5.2713792957       -0.4449035873
 H          3.9161918757       -4.6017707842        0.0573094120
 C          2.1935513044       -3.5218144198        0.7914946108
 H          1.4770161520       -4.1600882135        1.3146152358
 H          1.6135501552       -2.7247100857        0.3176622067
 C          3.1173003618       -2.9126598020        1.8471861935
 H          3.5985445231       -3.7118640929        2.4150625616
 H          2.5060462225       -2.3290330269        2.5408254027
 C          4.2051778075       -1.9901102390        1.2808248075
 H          4.6554145182       -1.4417133574        2.1118332327
 H          4.9783755920       -2.5788480686        0.7885189350
 H          2.0215743265       -3.2931848516       -1.9465556060
 H          3.3435052566       -4.3776770805       -2.3847474637
 H          4.1238119389       -2.1767734084       -2.7507492047
 H          4.9560754140       -2.7649350669       -1.2998306019
 O          2.9071798113       -0.3610462429       -1.8419589043
 C          2.3509079239        0.8267759483       -1.3873632291
 O          1.7901472947        1.4990932830       -2.2724202505
 H          0.3558033706        0.5062657831        1.4949368287
 C         -0.2518114039        1.2068958933        0.9341159097
 C          0.3601493488        2.3068016011        0.3431041788
 C         -0.4288182975        3.1957575277       -0.3729269549
 C         -1.7893283762        2.9726955400       -0.5055755587
 C         -2.3897161963        1.8685741940        0.0709771623
 C         -1.6098814974        0.9782015077        0.7981835521
 N         -2.2138593633       -0.1597095450        1.3806094191
 S         -2.7874000120       -1.2934948089        0.2726117328
 O         -2.8265792933       -2.5476101406        0.9937290626
 O         -2.0108890878       -1.2788588950       -0.9472225375
 C         -4.4514024339       -0.7499299814       -0.0465121504
 C         -4.8204389340       -0.3710037420       -1.3219882421
 C         -6.1209114249        0.0559504859       -1.5429255550
 C         -7.0224759350        0.0966507489       -0.4902264713
 C         -6.6357356673       -0.2892185835        0.7848611542
 C         -5.3381289799       -0.7186269134        1.0123181286
 H         -4.9960231378       -1.0318704622        1.9844441645
 H         -7.3397185415       -0.2557608807        1.6006042220
 H         -8.0326852039        0.4315922817       -0.6649618492
 H         -6.4230576161        0.3564556380       -2.5333180159
 H         -4.0816412426       -0.4122351767       -2.1065581425
 H         -1.6042262272       -0.6277207703        2.0378648002
 H         -3.4472344942        1.6898650541       -0.0362246992
 H         -2.3897298210        3.6679171616       -1.0720923689
 H          0.0232383209        4.0544557493       -0.8409264446
 C          1.8577788257        2.4265759786        0.4859453585
 H          2.0975425492        2.4518535633        1.5592415133
 C          2.4488834092        3.6506640035       -0.1764280692
 C          2.3806436048        4.9781014892        0.5161370110
 C          3.6903136520        4.2596263335        0.4006975280
 H          4.4359437031        4.6475028432       -0.2768427621
 H          4.1036841775        3.8006947038        1.2870171324
 H          1.9045839716        5.0112246994        1.4843400896
 H          2.2286644751        5.8640668592       -0.0812248677
 H          2.3589635422        3.6283069878       -1.2560826094
 O          3.1967086639        0.5096398424        2.1212793737
