  62
        -98.94105880
 C          1.7448794964       -0.9764373584       -0.2894818219
 C          2.1527884808        0.3721252241       -0.4413582019
 C          3.6004946372        0.5837828600       -0.5971090755
 C          4.4357651261       -0.4681323271       -0.6513651415
 C          5.9288396364       -0.4096805032       -0.8275352677
 C          6.7023557396       -0.1772619617        0.4775472905
 C          6.5995636086        1.2362652660        1.0519757882
 H          7.3552955165        1.3194664467        1.8355697011
 H          6.8526019111        1.9613898295        0.2778574121
 C          5.2283124075        1.5786034849        1.6514162152
 H          4.6680961924        0.6578946092        1.8305608501
 H          5.3644252101        2.0623371819        2.6213472946
 C          4.3779578714        2.5160325472        0.7937107944
 H          3.4174817412        2.6636198520        1.2949806580
 H          4.8683744504        3.4890986543        0.7176244573
 C          4.0990418940        1.9970229766       -0.6231172039
 H          4.9973172079        2.0739620838       -1.2353804617
 H          3.3163947156        2.6167492731       -1.0679508016
 H          6.3573087122       -0.8987260960        1.2218481729
 H          7.7548159880       -0.3877291660        0.2741123221
 H          6.2309401878       -1.3749762994       -1.2395109372
 H          6.1828928268        0.3698610429       -1.5462770628
 O          3.9955254218       -1.7520852172       -0.5731977472
 C          2.6537981761       -2.0351446613       -0.3757386484
 O          2.3956374022       -3.2533207963       -0.3087862284
 O          1.3699757338        1.3562771369       -0.4517214765
 C          0.2902793741       -1.3584626243       -0.0743466889
 C         -0.6041220436       -0.5877138788       -1.0126093534
 C         -0.4975792696       -0.8229102081       -2.3812550848
 C         -1.2938902880       -0.1401323268       -3.2794494114
 C         -2.2310415060        0.7746038544       -2.8311322389
 C         -2.3434913989        1.0176765429       -1.4680175586
 C         -1.5330442297        0.3387600338       -0.5678255631
 H         -1.6066357632        0.5832181080        0.4778691168
 N         -3.2805763044        1.9389605261       -0.9821698666
 S         -4.0299572288        1.6889674746        0.4851596990
 O         -5.2753031548        2.4203762123        0.3803768795
 O         -3.1709889827        2.0741722652        1.5760440152
 C         -4.3617537811       -0.0637802507        0.5608741100
 C         -3.9178944855       -0.7955316166        1.6430487974
 C         -4.1792365360       -2.1558805901        1.6879523190
 C         -4.8758068147       -2.7586583082        0.6523700184
 C         -5.3215837735       -2.0089662380       -0.4254385544
 C         -5.0649449196       -0.6485382706       -0.4737512578
 H         -5.4059671617       -0.0387193788       -1.2942824179
 H         -5.8657968927       -2.4807452351       -1.2275368339
 H         -5.0733184068       -3.8183970878        0.6872510402
 H         -3.8351784338       -2.7398672068        2.5269539580
 H         -3.3747715802       -0.2873899144        2.4240851735
 H         -3.9010090951        2.3340084362       -1.6723397688
 H         -2.8568226994        1.3080209756       -3.5303038657
 H         -1.1918877523       -0.3258485812       -4.3380636255
 H          0.2323446676       -1.5407030909       -2.7308912983
 H          0.2329857472       -2.4226151308       -0.3569230589
 C         -0.1649318959       -1.2699937109        1.3746965828
 C          0.7839881054       -1.5282529466        2.5054799680
 C          0.2473221292       -0.1483865544        2.2776532937
 H         -0.4802328866        0.2493018721        2.9709963946
 H          0.9072863565        0.6028178832        1.8730488431
 H          0.4276170359       -2.0870849432        3.3575574796
 H          1.8174751409       -1.7230382086        2.2575765139
 H         -1.1754266778       -1.6477141652        1.4991470935
