  62
        -98.94877975
 C          0.9392544543        1.2842078392        0.0464128730
 C          1.9076248536        1.0316302957        1.0448573343
 C          2.6368403593       -0.2373810009        0.9262567602
 C          2.3251867355       -1.0822241720       -0.0736147801
 C          3.0183636203       -2.3878291316       -0.3349624339
 C          4.1933688990       -2.2092184278       -1.3063676263
 C          5.1358733324       -1.0667103177       -0.9283857646
 H          4.6013996934       -0.1185793152       -1.0203858507
 H          5.9437695557       -1.0540737862       -1.6630475111
 C          5.7307367760       -1.1755804091        0.4825184191
 H          6.7982939875       -0.9513234753        0.4314425717
 H          5.6320742497       -2.1978741448        0.8494956671
 C          5.1229347024       -0.2115556408        1.5033293517
 H          5.1360684394        0.8045292922        1.1008270007
 H          5.7546153387       -0.2178776565        2.3957152656
 C          3.6918402662       -0.5304926213        1.9554759352
 H          3.4613906454        0.1117270175        2.8110249186
 H          3.6308706325       -1.5698738446        2.2860569971
 H          3.7917632979       -2.0063206763       -2.3015438821
 H          4.7525043962       -3.1457229217       -1.3479780091
 H          2.2971454959       -3.0800462968       -0.7718256273
 H          3.3714135031       -2.7995203626        0.6087441380
 O          1.3688893268       -0.8180616889       -0.9988864192
 C          0.6511618642        0.3682495073       -0.9656489590
 O         -0.1953051140        0.4847347996       -1.8703670074
 O          2.1506387988        1.8307910824        1.9913363935
 C          0.1485202995        2.5761164222        0.0957985708
 C         -1.3360604443        2.3088649355        0.1368607886
 C         -2.2648995028        3.1659611912       -0.4423842836
 C         -3.6186548318        2.8902397748       -0.3659117718
 C         -4.0750636599        1.7518642274        0.2726992263
 C         -3.1542373351        0.8906826708        0.8586413550
 C         -1.8013788443        1.1825014591        0.8019562921
 H         -1.1020081488        0.5088430040        1.2750507642
 N         -3.5752540171       -0.2777456749        1.5146605254
 S         -2.6791332585       -1.6780047901        1.4069071827
 O         -3.6060976432       -2.7175953214        1.8091373801
 O         -1.4822488516       -1.5778693521        2.2067441090
 C         -2.2510895887       -1.9293873075       -0.3068816583
 C         -1.0981119016       -2.6362058486       -0.5781467626
 C         -0.7735465811       -2.9158024005       -1.8948752270
 C         -1.6011265157       -2.4794159520       -2.9157068805
 C         -2.7560911066       -1.7715410590       -2.6279618748
 C         -3.0922834547       -1.4990975447       -1.3123082797
 H         -3.9866773744       -0.9477957385       -1.0727830103
 H         -3.3938721910       -1.4240971228       -3.4246959871
 H         -1.3386936515       -2.6854987857       -3.9413920735
 H          0.1293550320       -3.4604227708       -2.1212088789
 H         -0.4703819857       -2.9371380827        0.2467952549
 H         -4.5657993508       -0.4670277821        1.4669307803
 H         -5.1303003904        1.5300438410        0.3217342120
 H         -4.3279555029        3.5652975928       -0.8197187989
 H         -1.9266112054        4.0509659690       -0.9559371984
 H          0.4353638962        3.0605465656        1.0421822540
 C          0.5538301091        3.4789961718       -1.0536596791
 C          0.6000536749        4.9669384687       -0.8787722679
 C          1.8737340254        4.1850714451       -0.9835207104
 H          2.4631566466        4.2705967490       -1.8840607861
 H          2.4622256838        4.0416203394       -0.0887773058
 H          0.3167369663        5.5932170922       -1.7113517804
 H          0.3332639494        5.3670383058        0.0878727338
 H          0.2481846687        3.0834958255       -2.0159298361
