  62
        -98.95213055
 C          2.3531003098        0.3720855095        0.0414379480
 C          1.5203477003       -0.2097212188       -0.9422455276
 C          1.5483752880       -1.6752609566       -1.0268376595
 C          2.3415965379       -2.3664324249       -0.1884539943
 C          2.4824711602       -3.8609970051       -0.1745012518
 C          1.5072455845       -4.5225247888        0.8072681314
 C          0.0592054856       -4.0561958166        0.6564131126
 H         -0.5428662696       -4.6362185024        1.3602943980
 H         -0.0221234321       -3.0105680318        0.9626469064
 C         -0.5185018513       -4.2118680000       -0.7571623891
 H          0.0761939683       -4.9270150987       -1.3276622625
 H         -1.5284077465       -4.6194167032       -0.6746458383
 C         -0.6313089158       -2.8985929636       -1.5339618021
 H         -1.2917549440       -3.0619723989       -2.3900793421
 H         -1.0996502945       -2.1479037244       -0.8923252569
 C          0.6864889658       -2.3255285431       -2.0720567297
 H          1.2400093811       -3.1067202286       -2.5981838400
 H          0.4400456416       -1.5364892070       -2.7885722121
 H          1.5591145626       -5.6040771197        0.6647018196
 H          1.8327328802       -4.2981460039        1.8258040132
 H          2.3127412689       -4.2415753509       -1.1801435608
 H          3.5035452287       -4.1025301634        0.1274515213
 O          3.1112172523       -1.7742482689        0.7613643616
 C          3.1220133405       -0.3973058904        0.9121550355
 O          3.8518022644        0.0157008165        1.8380919107
 O          0.8002704757        0.4663626562       -1.7242188334
 C          2.4025740812        1.8825618692        0.1877533035
 C          1.0082778666        2.4408435640        0.3362885354
 C          0.5820526122        3.6062099772       -0.2893625223
 C         -0.7171562448        4.0555831530       -0.1271886942
 C         -1.6223342876        3.3441125861        0.6387918872
 C         -1.2020001924        2.1832987349        1.2773714567
 C          0.1107394596        1.7605823203        1.1490469176
 H          0.4238836960        0.8588953359        1.6552703490
 N         -2.0886468543        1.4067993136        2.0530871922
 S         -2.3895407108       -0.1556379374        1.5224845221
 O         -3.3541006026       -0.6901614679        2.4602291899
 O         -1.1514464309       -0.8785892871        1.4003180520
 C         -3.1746794906        0.0594065676       -0.0656007043
 C         -4.5508637884       -0.0488969445       -0.1349498817
 C         -5.1837784530        0.1769420381       -1.3459514624
 C         -4.4331054554        0.5162684959       -2.4617938449
 C         -3.0543246519        0.6253981312       -2.3736940719
 C         -2.4118806449        0.3973781085       -1.1656810341
 H         -1.3380562535        0.4729608257       -1.0860262732
 H         -2.4621634927        0.8882313167       -3.2355222824
 H         -4.9241443891        0.6957820271       -3.4052562701
 H         -6.2562540565        0.0901197884       -1.4150999259
 H         -5.0905873841       -0.3173491025        0.7589468373
 H         -2.9705520989        1.8648008796        2.2400338069
 H         -2.6436673179        3.6785410569        0.7426963066
 H         -1.0340002248        4.9618091642       -0.6202887001
 H          1.2666088998        4.1601485291       -0.9106694332
 H          2.9570458489        2.0824684158        1.1168274198
 C          3.1654068213        2.4852559474       -0.9756547251
 C          3.9715558205        3.7349897177       -0.7910037144
 C          4.6619582705        2.4171814779       -0.9694859193
 H          5.1737548957        2.2216342765       -1.8998222405
 H          5.1308489710        1.9604117342       -0.1097570828
 H          4.0145809981        4.4462107479       -1.6021014995
 H          3.9841597048        4.1820758159        0.1915430475
 H          2.6623424652        2.3332935664       -1.9239394689
