  62
        -98.94121961
 C         -1.9584700734       -0.8972490527       -0.2278902855
 C         -2.5554317214       -0.2871331055        0.9059858482
 C         -2.8459681972        1.1449950627        0.8046163483
 C         -2.4975863377        1.8134798944       -0.3091326729
 C         -2.6826620573        3.2869675677       -0.5532316676
 C         -4.0805594212        3.6673379878       -1.0606206867
 C         -5.1955816146        3.5838595635       -0.0173781480
 H         -4.9018794318        4.1444509813        0.8704675444
 H         -6.0697786759        4.0801567003       -0.4432228320
 C         -5.5844963408        2.1530789990        0.3799666492
 H         -5.2026874308        1.4520234160       -0.3658037046
 H         -6.6726171758        2.0584662649        0.3817861266
 C         -5.0896929471        1.7219590024        1.7606264026
 H         -5.3910041921        0.6842596219        1.9239175933
 H         -5.5644319892        2.3362418831        2.5288019199
 C         -3.5680144100        1.8053963366        1.9404488158
 H         -3.2552672040        2.8452212726        2.0348132799
 H         -3.2990576410        1.2740605762        2.8565933831
 H         -4.0258335572        4.6966692904       -1.4224444381
 H         -4.3274920713        3.0283316765       -1.9115722131
 H         -2.4620135297        3.8376210466        0.3618440172
 H         -1.9488261723        3.5682600569       -1.3119688611
 O         -1.9039732714        1.2037165941       -1.3672194660
 C         -1.6246690755       -0.1578386181       -1.3633300642
 O         -1.1027063608       -0.5534225798       -2.4250018288
 O         -2.8379584740       -0.9213304810        1.9590025765
 C         -1.6349413308       -2.3745799027       -0.0924733156
 C         -0.2556359461       -2.5548175108        0.4993298112
 C         -0.0446407098       -3.4323981077        1.5565661515
 C          1.2130490332       -3.5732230167        2.1150130653
 C          2.2767756280       -2.8246314282        1.6458878837
 C          2.0769287590       -1.9487700693        0.5844080761
 C          0.8222295806       -1.8353692210        0.0045646740
 H          0.6900761109       -1.1548363144       -0.8234232628
 N          3.1327704455       -1.1736154175        0.0799289480
 S          2.7858679377        0.4081922895       -0.4088438738
 O          1.7834567491        0.9859360071        0.4583501349
 O          2.5051551788        0.4074587343       -1.8220318019
 C          4.3684646587        1.1820588574       -0.1219837679
 C          5.3489968582        1.0739144523       -1.0902071369
 C          6.5910178412        1.6409616167       -0.8522277795
 C          6.8316763025        2.3008989633        0.3438145697
 C          5.8375435476        2.4028466373        1.3053586922
 C          4.5933217683        1.8372344305        1.0739873487
 H          3.7870226389        1.8977323226        1.7874223927
 H          6.0256740297        2.9194716874        2.2326810649
 H          7.7990351077        2.7412797860        0.5265254171
 H          7.3648450720        1.5662706141       -1.5989687333
 H          5.1109142539        0.5592901739       -2.0065687735
 H          3.9633087318       -1.2143933278        0.6551471130
 H          3.2539409462       -2.9138096774        2.0956009819
 H          1.3624622985       -4.2567590896        2.9367953558
 H         -0.8795862014       -3.9900580851        1.9537233766
 H         -2.3588550039       -2.7661949991        0.6365955642
 C         -1.7636419311       -3.1767299231       -1.3716301435
 C         -2.0445274842       -4.6462334795       -1.2868075633
 C         -3.1046633566       -3.7073398688       -1.7771032967
 H         -3.3584919673       -3.7094659074       -2.8262610541
 H         -3.9411059897       -3.4974340034       -1.1263338873
 H         -1.5674311915       -5.3006781580       -1.9997439316
 H         -2.1676559503       -5.0782250338       -0.3055055628
 H         -1.1058235338       -2.8325811725       -2.1591774823
