  62
        -98.94231279
 C         -0.8826872553       -1.3023663942       -0.0137504078
 C         -1.8623933758       -1.0104247766        0.9611003691
 C         -2.6096462058        0.2457158606        0.7834658216
 C         -2.3185384234        1.0412301512       -0.2599748945
 C         -2.9241148052        2.3745306949       -0.6246807229
 C         -4.4417587970        2.5352327976       -0.4673578782
 C         -5.2599820597        1.2697213297       -0.7625397481
 H         -6.0470481614        1.5140982083       -1.4781627831
 H         -4.6235332121        0.5118609201       -1.2221700686
 C         -5.9251798434        0.6854216004        0.4856248928
 H         -6.3469222216        1.5031184164        1.0741951660
 H         -6.7539648759        0.0444347834        0.1756893702
 C         -5.0137736266       -0.1548462899        1.3793374230
 H         -4.7667733635       -1.0946317796        0.8781270574
 H         -5.5711828005       -0.4116037157        2.2835034361
 C         -3.6910464157        0.5126940619        1.7907406693
 H         -3.3542441417        0.0478519573        2.7218924353
 H         -3.8233148063        1.5774369433        1.9685238389
 H         -4.7456805967        3.3326421006       -1.1477530023
 H         -4.6702783269        2.8801582191        0.5400423910
 H         -2.4200683570        3.1478139979       -0.0369350084
 H         -2.6503050346        2.5304901485       -1.6707175321
 O         -1.3498935047        0.7292366807       -1.1667711520
 C         -0.6043600686       -0.4339275467       -1.0678456047
 O          0.2512279730       -0.5760740314       -1.9604171453
 O         -2.1002755035       -1.7643212224        1.9446907998
 C         -0.0794272470       -2.5820972123        0.1027615396
 C          1.4011989253       -2.2951008688        0.1428077415
 C          2.3448225188       -3.1483279753       -0.4175410049
 C          3.6939357973       -2.8502932026       -0.3415998307
 C          4.1306336726       -1.6949074777        0.2797887716
 C          3.1947054709       -0.8377140412        0.8478404571
 C          1.8464265276       -1.1496660899        0.7891995215
 H          1.1338529748       -0.4792624095        1.2471814809
 N          3.5980931280        0.3451795085        1.4874529252
 S          2.6652196628        1.7215249518        1.4075871006
 O          3.5757302371        2.7831479600        1.7888844661
 O          1.4926432440        1.5898172986        2.2384237054
 C          2.1838208549        1.9724040268       -0.2921503698
 C          2.9821897220        1.5348637952       -1.3287346140
 C          2.6032128639        1.8196604673       -2.6302371786
 C          1.4514438716        2.5491107208       -2.8734638014
 C          0.6667103354        2.9924176475       -1.8219431029
 C          1.0325725193        2.6976252070       -0.5195409403
 H          0.4393765198        3.0025876062        0.3289380612
 H         -0.2327849921        3.5562296312       -2.0104386600
 H          1.1581236354        2.7663096258       -3.8884326481
 H          3.2060241841        1.4651373674       -3.4506669920
 H          3.8751289428        0.9670413150       -1.1250115045
 H          4.5832245999        0.5571971279        1.4278901913
 H          5.1821265633       -1.4562127743        0.3291186985
 H          4.4151640388       -3.5218933545       -0.7815446657
 H          2.0223005537       -4.0474050870       -0.9164625440
 H         -0.3685570237       -3.0243585530        1.0688505555
 C         -0.4672379631       -3.5410142568       -1.0063625434
 C         -0.4858427207       -5.0206553678       -0.7677156080
 C         -1.7737932038       -4.2679318417       -0.9060539696
 H         -2.3607052260       -4.4029735516       -1.8021738478
 H         -2.3656053223       -4.0975387754       -0.0182914813
 H         -0.1901717393       -5.6767856176       -1.5725564552
 H         -0.2120579675       -5.3736489029        0.2151547917
 H         -0.1683938146       -3.1817021420       -1.9848842449
