  62
        -98.93374596
 C         -2.4553821553       -1.0316022802       -0.0960122815
 C         -3.6800677310       -1.1360986074        0.6023711357
 C         -4.8497379643       -0.4962010720       -0.0240620835
 C         -4.6933191079        0.1399396143       -1.1981840560
 C         -5.7337655925        0.9021951751       -1.9713227958
 C         -5.6923530944        2.3966122184       -1.6094129036
 C         -6.5420218007        2.7910652665       -0.4019779667
 H         -6.3206735866        3.8369303303       -0.1769261808
 H         -7.5985639280        2.7305950355       -0.6714349149
 C         -6.3114732811        1.9575010630        0.8612937292
 H         -5.2414988573        1.7942310707        1.0038511457
 H         -6.6651695421        2.5389613064        1.7150752652
 C         -7.0485710848        0.6101035586        0.8383692723
 H         -7.7706216317        0.6135020135        0.0220739419
 H         -7.6237574240        0.4974436351        1.7597421426
 C         -6.1474933800       -0.6286820240        0.7255344204
 H         -5.8548741519       -0.9575577730        1.7277353645
 H         -6.7229204318       -1.4493279799        0.2842646619
 H         -6.0376716856        2.9750643504       -2.4686758020
 H         -4.6488705186        2.6690336254       -1.4304783224
 H         -6.7219914703        0.4840049460       -1.8049793392
 H         -5.4778185261        0.7934914893       -3.0272554790
 O         -3.4937260266        0.2178081723       -1.8372220212
 C         -2.3483606836       -0.3528274496       -1.3094830635
 O         -1.3277653483       -0.1946115040       -2.0051749098
 O         -3.7914266236       -1.7321152545        1.7083710359
 C         -1.2101494415       -1.6554707795        0.5092373231
 C         -0.2051189060       -0.5686440065        0.8020186184
 C         -0.5645200215        0.4438507249        1.6886693177
 C          0.3091402417        1.4733221338        1.9788840550
 C          1.5600595291        1.5207276587        1.3879568154
 C          1.9304576622        0.5151247894        0.5066794410
 C          1.0544128035       -0.5284085860        0.2278244351
 H          1.3566664078       -1.3014851277       -0.4610757042
 N          3.1900206031        0.5652271219       -0.1166974481
 S          4.5220852352        0.9729838907        0.8368717704
 O          4.5038830706        0.2116998449        2.0664347594
 O          4.5602413081        2.4061197856        0.9869783033
 C          5.8612183211        0.4378631669       -0.2093459313
 C          6.4183233764       -0.8110958263       -0.0101107159
 C          7.4420220207       -1.2290202075       -0.8458435489
 C          7.8859807611       -0.3970468874       -1.8626758839
 C          7.3162282656        0.8535971849       -2.0504036150
 C          6.2930697556        1.2782204338       -1.2178319054
 H          5.8262807888        2.2438868000       -1.3205603500
 H          7.6657882184        1.4981083909       -2.8407654590
 H          8.6830457258       -0.7244569378       -2.5113854304
 H          7.8887820421       -2.1994962862       -0.7010803338
 H          6.0477805720       -1.4207357052        0.7984443597
 H          3.3744560674       -0.2612403324       -0.6687012611
 H          2.2520744374        2.3189412529        1.6030646396
 H          0.0157402263        2.2500924197        2.6695053414
 H         -1.5438342848        0.4110063212        2.1470783965
 H         -1.5355740911       -2.0838654982        1.4682900196
 C         -0.6829058602       -2.7701968250       -0.3681661058
 C          0.1934443052       -3.8338673981        0.2213147971
 C         -1.2142802797       -4.1578422335       -0.1771378247
 H         -1.3757627108       -4.7720368398       -1.0502433989
 H         -1.9473219239       -4.3063767731        0.6021212030
 H          0.9985576057       -4.2312819603       -0.3781094886
 H          0.4203544531       -3.7651252407        1.2745715162
 H         -0.4866722998       -2.4474931623       -1.3843449853
