  62
        -98.94144142
 C         -1.2321980298       -1.1365647553       -0.0524235378
 C         -1.6511292419       -0.0701795581        0.7758297497
 C         -2.6855712692        0.8203878073        0.2270808147
 C         -3.1329836822        0.6159875477       -1.0234624855
 C         -4.1383235561        1.4269917035       -1.8024307599
 C         -5.4016685752        1.8910408882       -1.0637997375
 C         -5.9065630688        0.9345109148        0.0265213498
 H         -6.9697378030        0.7457308326       -0.1330556756
 H         -5.3899925441       -0.0238059528       -0.0489073794
 C         -5.7367398290        1.4972706161        1.4397628663
 H         -6.0266501196        2.5502420681        1.4338013103
 H         -6.4213918844        0.9732107681        2.1108547336
 C         -4.3345601186        1.3683944365        2.0335720341
 H         -4.1235725493        0.3196763974        2.2593133316
 H         -4.3196923672        1.9106300019        2.9820093195
 C         -3.1907566784        1.8921180904        1.1495306527
 H         -2.3507390633        2.1505751761        1.8005241892
 H         -3.4875463147        2.7847112182        0.6036902914
 H         -6.1772394344        2.0232320241       -1.8201183976
 H         -5.2250076927        2.8710605137       -0.6224694752
 H         -3.6206575286        2.2992349763       -2.2133700761
 H         -4.4196477301        0.7936513620       -2.6473926944
 O         -2.6702032295       -0.4000819937       -1.8057665063
 C         -1.7120168921       -1.2930121368       -1.3512565315
 O         -1.3827201966       -2.1600241232       -2.1832981574
 O         -1.1707204213        0.1377454097        1.9231615698
 C         -0.1659090117       -2.0881279154        0.4542090108
 C          1.0929635598       -1.9683315973       -0.3707306433
 C          1.9148156680       -3.0481282950       -0.6700559525
 C          3.0726872177       -2.8622911942       -1.4056095575
 C          3.4506560729       -1.6027976058       -1.8346041131
 C          2.6378991937       -0.5154192973       -1.5353301103
 C          1.4707981840       -0.7090912481       -0.8150227470
 H          0.8336609115        0.1388904299       -0.6181957067
 N          2.9759407835        0.7830159208       -1.9445190369
 S          2.6089585953        2.0808183527       -0.9560405778
 O          1.2004105602        2.3827752877       -1.0186239290
 O          3.4970914975        3.1308194765       -1.4090897212
 C          3.0870506175        1.5560884714        0.6808178296
 C          4.4399445492        1.4103495445        0.9241859641
 C          4.8563543616        0.9579121717        2.1646969854
 C          3.9161778116        0.6533984768        3.1380213977
 C          2.5638396776        0.8105603558        2.8808331868
 C          2.1407334203        1.2665622620        1.6416305410
 H          1.0913311106        1.3881170400        1.4225826219
 H          1.8236899557        0.5754322329        3.6291973821
 H          4.2379719265        0.2941865128        4.1027845200
 H          5.9084506938        0.8405904679        2.3682435652
 H          5.1395481609        1.6684267283        0.1458456355
 H          3.8853038453        0.8755417518       -2.3721285857
 H          4.3563897901       -1.4605596897       -2.4036011123
 H          3.6959664311       -3.7112895531       -1.6415284035
 H          1.6442062302       -4.0360426981       -0.3352572850
 H          0.0717947202       -1.7425264667        1.4725489164
 C         -0.7015482698       -3.5028914428        0.5328903102
 C         -0.2172907913       -4.4411665519        1.5967373355
 C         -1.6010087108       -3.8720742177        1.6734465605
 H         -2.4416351581       -4.5209253329        1.4785126569
 H         -1.8013143735       -3.1098013828        2.4124129014
 H         -0.1091533810       -5.4867570750        1.3505711735
 H          0.5193785982       -4.0712200144        2.2936175171
 H         -0.9392446177       -3.9102111300       -0.4432890699
