  62
        -98.93814784
 C          2.0367057128        1.6939675562       -0.1905690235
 C          2.5358044077        0.8327071752       -1.1989123462
 C          3.6870527978       -0.0029196275       -0.8054352129
 C          4.2238357089        0.1242798308        0.4196988436
 C          5.3407109608       -0.7173720772        0.9641053716
 C          4.7929920392       -1.9496647680        1.6979275788
 C          3.7415132196       -2.7270007439        0.9049741080
 H          3.4520841393       -3.5910197432        1.5074599361
 H          2.8478608972       -2.1084946213        0.7877524493
 C          4.2115160947       -3.2033879770       -0.4766725131
 H          5.3011431617       -3.1864519224       -0.5233914950
 H          3.8956816097       -4.2396889759       -0.6148114846
 C          3.6427178949       -2.4060778288       -1.6522495989
 H          3.8615356141       -2.9549719764       -2.5724140811
 H          2.5540412266       -2.3451678557       -1.5625855497
 C          4.1949266377       -0.9850156701       -1.8232235694
 H          5.2863974586       -1.0118337527       -1.8254873086
 H          3.8562250843       -0.6125821475       -2.7945874116
 H          5.6288776065       -2.6092301558        1.9379654938
 H          4.3381827713       -1.6206571144        2.6351420209
 H          5.9900814473       -1.0257288380        0.1473053051
 H          5.9163497659       -0.1129813795        1.6670670435
 O          3.7647227801        1.0168766299        1.3342668454
 C          2.6489154869        1.7885296686        1.0637766380
 O          2.3026723571        2.5325954908        2.0032768087
 O          2.0800157990        0.7441232143       -2.3666070798
 C          0.7797265446        2.5441408190       -0.3119470199
 C         -0.3011687129        1.9433554648        0.5538827167
 C         -1.0839805341        2.7457532292        1.3764597151
 C         -2.0565467081        2.1905436564        2.1882353855
 C         -2.2785493422        0.8253061887        2.1800072695
 C         -1.5041952747        0.0140415182        1.3592705755
 C         -0.5195383468        0.5726950539        0.5575715709
 H          0.0806587491       -0.0740326206       -0.0661960798
 N         -1.7074826903       -1.3834318870        1.3136809732
 S         -2.3655215006       -1.9791306593       -0.1085702201
 O         -2.5593086209       -3.3937887766        0.1165647057
 O         -1.5326106588       -1.6033623787       -1.2196247838
 C         -3.9503967598       -1.1652780141       -0.2144133327
 C         -5.0688701360       -1.8109812566        0.2757124651
 C         -6.2852061830       -1.1472959344        0.2647430751
 C         -6.3592932836        0.1487493878       -0.2230628565
 C         -5.2267257174        0.7846734037       -0.7082163539
 C         -4.0079991272        0.1245260493       -0.7040067250
 H         -3.1089072210        0.5860665073       -1.0791568632
 H         -5.2835126044        1.7917244915       -1.0887133505
 H         -7.3052572428        0.6667235118       -0.2271622977
 H         -7.1680993854       -1.6405976567        0.6382232293
 H         -4.9634457515       -2.8195419717        0.6417864553
 H         -2.2433795916       -1.7364877447        2.0952287049
 H         -3.0356761207        0.3858709026        2.8121047318
 H         -2.6475140086        2.8249234782        2.8305239341
 H         -0.9069850466        3.8108840526        1.3929226214
 H          1.0318017386        3.5250431780        0.1254457167
 C          0.3067089777        2.7993968185       -1.7333311298
 C         -0.6761540169        1.9199272772       -2.4386140829
 C         -1.0890960363        3.2880070524       -1.9907543363
 H         -1.2349112782        4.0501048740       -2.7411523933
 H         -1.7582926742        3.3614566672       -1.1465963499
 H         -0.5136008573        1.7386517505       -3.4901903179
 H         -1.0502764324        1.0510250286       -1.9183834323
 H          1.0944233766        3.2208938668       -2.3481848711
