  62
        -98.93528112
 C          2.1034783908        1.0443352963        0.5382997787
 C          2.3958826848        0.2972019459       -0.6244586687
 C          2.7610209240       -1.1182687585       -0.4250949548
 C          2.7806667309       -1.6180570376        0.8235221175
 C          3.0951697813       -3.0225452523        1.2741390613
 C          4.3059374577       -3.7042757526        0.6178506803
 C          3.9227293822       -4.8401025068       -0.3321845134
 H          4.7680181706       -5.5269797935       -0.4140488213
 H          3.0922582561       -5.3950698944        0.1089397943
 C          3.5437176148       -4.4036613309       -1.7461648022
 H          4.4408298635       -4.0747790266       -2.2750052074
 H          3.1598431976       -5.2815330440       -2.2709516446
 C          2.5003040691       -3.2874818775       -1.8308575279
 H          1.7119105963       -3.4381169100       -1.0936014696
 H          2.0292042448       -3.3449151345       -2.8144889562
 C          3.0934784975       -1.8786100384       -1.6801363843
 H          4.1811152182       -1.9178856355       -1.7906757204
 H          2.7301422861       -1.2386208345       -2.4903577382
 H          4.9112927094       -2.9627931772        0.0990304004
 H          4.9217583755       -4.1247697193        1.4144928007
 H          3.2513801323       -2.9447734542        2.3526404509
 H          2.2000662261       -3.6342891128        1.1344232183
 O          2.4691440922       -0.8620431610        1.9170222816
 C          2.1158247097        0.4691394274        1.8061826935
 O          1.8480112104        1.0261682330        2.8922645944
 H         -0.4195853583        0.8669429879        0.4089870931
 C         -0.5489160416        1.6784577411       -0.2937547545
 C          0.4564812182        2.6259119086       -0.4396392104
 C          0.2638158936        3.6644903414       -1.3417271226
 C         -0.9035255441        3.7400837397       -2.0819953968
 C         -1.9002411725        2.7941171649       -1.9349508257
 C         -1.7159073272        1.7483586952       -1.0357074242
 N         -2.6915826092        0.7480290278       -0.8969355393
 S         -2.7972093512       -0.1348776202        0.5324558685
 O         -2.8085727561        0.7538292488        1.6736779982
 O         -1.7849251129       -1.1625721279        0.5250907316
 C         -4.4079122041       -0.8701547003        0.3187594629
 C         -4.5242176980       -2.0145587187       -0.4473748454
 C         -5.7810275554       -2.5650094987       -0.6430215089
 C         -6.8945860353       -1.9650255904       -0.0738981160
 C         -6.7623094392       -0.8181492600        0.6944321257
 C         -5.5083328497       -0.2620385912        0.8931391725
 H         -5.3547771003        0.6226587173        1.4899452140
 H         -7.6289032585       -0.3557805471        1.1386629726
 H         -7.8712468952       -2.3958808458       -0.2275920597
 H         -5.8870124236       -3.4582082695       -1.2372475663
 H         -3.6292756359       -2.4488338921       -0.8618738191
 H         -3.5989602547        1.0201909725       -1.2485190489
 H         -2.8083624091        2.8533919461       -2.5148939234
 H         -1.0397997470        4.5507953011       -2.7815349911
 H          1.0289969113        4.4129257198       -1.4670063596
 C          1.6925536895        2.4990788399        0.4193918456
 H          1.4268822498        2.8224291668        1.4379789991
 C          2.8558863238        3.3366853275       -0.0719839907
 C          3.0106154244        4.7581494906        0.3759856741
 C          3.9384540170        3.7032735707        0.8967472513
 H          4.9620002201        3.6973449020        0.5536046527
 H          3.8183183004        3.3718173161        1.9183656592
 H          2.2666550228        5.1534552489        1.0512342430
 H          3.4020666252        5.4801118219       -0.3247594868
 H          3.1529237778        3.0788268430       -1.0819518969
 O          2.3541887191        0.7870440511       -1.7843798564
