  62
        -98.93191867
 C          2.1117874673        0.3507116570        0.3451625326
 C          3.2167867601        0.7533081359       -0.4412423563
 C          4.3629002770       -0.1759585628       -0.4968242415
 C          4.3069614047       -1.3473574118        0.1617103008
 C          5.2911791123       -2.4957246709        0.2450910827
 C          6.7422767671       -2.3160400699       -0.1941851060
 C          7.5617332571       -1.3628052390        0.6750244541
 H          8.5434046374       -1.2388148592        0.2125813025
 H          7.7110723702       -1.8264432216        1.6534471453
 C          6.9444589034        0.0140534611        0.9075027484
 H          7.6312188224        0.5854873837        1.5379068316
 H          6.0110741556       -0.0917485549        1.4643340469
 C          6.6798567048        0.8341409162       -0.3536487437
 H          7.5976970051        0.9145785722       -0.9391912414
 H          6.3953932315        1.8409623232       -0.0365157367
 C          5.5600774457        0.3042935505       -1.2661516597
 H          5.9251826524       -0.4737890638       -1.9319307656
 H          5.2123205806        1.1330632477       -1.8893548121
 H          6.7857602083       -2.0136455396       -1.2363067926
 H          7.2091893162       -3.3028328746       -0.1316138420
 H          4.8495197170       -3.3084275398       -0.3424740708
 H          5.2716154101       -2.8263136324        1.2885390228
 O          3.2057660514       -1.7084566230        0.8848419700
 C          2.1086411660       -0.8780243618        1.0101668176
 O          1.2065245946       -1.3381074190        1.7402473641
 O          3.2739007780        1.8339420242       -1.0854870293
 C          0.8645604524        1.1990356159        0.5422146392
 C         -0.0907833324        1.0584412202       -0.6198928344
 C          0.2752308991        1.4338969898       -1.9077081081
 C         -0.6160871331        1.2882022547       -2.9544133384
 C         -1.8795060941        0.7697367498       -2.7371933492
 C         -2.2618730574        0.4008417500       -1.4509285420
 C         -1.3666900499        0.5558828201       -0.4009949402
 H         -1.6537825970        0.2470208785        0.5916678599
 N         -3.5708936109       -0.0614082353       -1.2313597493
 S         -4.0654124372       -1.2550623701       -0.1585266874
 O         -3.2161376933       -1.2944482116        1.0021568402
 O         -4.2291076096       -2.4951672012       -0.8902583604
 C         -5.6666459518       -0.6136261666        0.2892664079
 C         -5.7043091421        0.5543380708        1.0263171324
 C         -6.9342743705        1.0833741179        1.3816776888
 C         -8.1003849737        0.4380614757        0.9961189242
 C         -8.0463326851       -0.7336368489        0.2573825742
 C         -6.8180120395       -1.2671962858       -0.1021058721
 H         -6.7275696488       -2.1770585689       -0.6730784936
 H         -8.9544926534       -1.2331029178       -0.0394784963
 H         -9.0566634929        0.8519113124        1.2747069402
 H         -6.9796340949        1.9944465483        1.9564765624
 H         -4.7732457490        1.0191277868        1.3079482312
 H         -4.0858528296       -0.1795958200       -2.0936089386
 H         -2.5710658601        0.6526227915       -3.5582508313
 H         -0.3220119519        1.5768464240       -3.9524191261
 H          1.2650408960        1.8265979052       -2.0806816224
 H          0.3664996500        0.7828905976        1.4290294098
 C          1.1730612782        2.6603035225        0.8087637357
 C          0.1610365667        3.4930044989        1.5334411880
 C          1.4402571547        3.1072682928        2.2127763447
 H          2.1896588812        3.8667753112        2.3775717721
 H          1.3993631478        2.3585473822        2.9912418681
 H          0.0286820682        4.5206462593        1.2321899993
 H         -0.7477248149        3.0058967325        1.8541223023
 H          1.7444650291        3.1301526003        0.0196383419
