  62
        -98.94435631
 C         -1.9711129702       -1.1411261999       -0.1869284217
 C         -2.4079998400        0.0413492311       -0.8309543500
 C         -3.8583807700        0.2836257612       -0.8047567698
 C         -4.6675637301       -0.6106753196       -0.2084038111
 C         -6.1536833201       -0.4596478296       -0.0634691209
 C         -6.5150851801        0.2443220685        1.2521215900
 C         -5.7219952600        1.5264171481        1.5056608419
 H         -6.0807496000        1.9498498368        2.4462816825
 H         -4.6688430200        1.2732403878        1.6479643116
 C         -5.8422236598        2.5778166197        0.3937024734
 H         -6.7132996798        2.3635628107       -0.2266113570
 H         -6.0033714098        3.5557792691        0.8521318148
 C         -4.6050754198        2.7027279408       -0.4976140364
 H         -4.7095077297        3.6092886917       -1.0998594151
 H         -3.7141920298        2.8247574999        0.1240410238
 C         -4.3598078298        1.5372900122       -1.4642470780
 H         -3.5733290398        1.8436257631       -2.1604669975
 H         -5.2671462898        1.3367295031       -2.0377375083
 H         -7.5826453701        0.4713264387        1.2398273103
 H         -6.3235500702       -0.4452323126        2.0774274691
 H         -6.5398460200        0.1064275316       -0.9088612002
 H         -6.6025916402       -1.4542885096       -0.0681981324
 O         -4.2112153203       -1.7450208305        0.3815416073
 C         -2.8568298203       -2.0323017706        0.4191527270
 O         -2.5709321604       -3.0918571215        1.0125006155
 O         -1.6332007099        0.8545580918       -1.3991662588
 C         -0.4907153102       -1.4809828701       -0.1418225621
 C          0.2582489999       -0.3588656611        0.5342472195
 C         -0.1042101902       -0.0139553629        1.8348806000
 C          0.5220781199        1.0270217661        2.4906745915
 C          1.5307456800        1.7413209669        1.8669593226
 C          1.9024453500        1.4047012587        0.5713572921
 C          1.2723453700        0.3535844397       -0.0840789394
 H          1.5661059200        0.1306350811       -1.0952216097
 N          2.9026424701        2.1342458795       -0.0887384668
 S          4.0760471901        1.3843427507       -1.0092424378
 O          5.0680132702        2.4129326409       -1.2314391763
 O          3.4968430701        0.7903487224       -2.1860944487
 C          4.7454396499        0.1242110391        0.0604055105
 C          4.2512858498       -1.1626369008       -0.0041055114
 C          4.7429537097       -2.1121896020        0.8780250073
 C          5.7131112797       -1.7610337635        1.8037615378
 C          6.2017479198       -0.4640678736        1.8535256497
 C          5.7115924299        0.4904404477        0.9775935610
 H          6.0720181600        1.5063613377        0.9746445025
 H          6.9600509698       -0.1953536547        2.5712193301
 H          6.0923258495       -2.5039328645        2.4876397368
 H          4.3656389696       -3.1216695120        0.8384988758
 H          3.5014658198       -1.4011491896       -0.7399022118
 H          3.2986832502        2.8873687887        0.4540160443
 H          2.0151424701        2.5623479661        2.3733686038
 H          0.2251990199        1.2862099147        3.4958281219
 H         -0.8964923903       -0.5704677435        2.3178110892
 H         -0.4066214103       -2.3785170110        0.4878078266
 C          0.0137926498       -1.8133435482       -1.5296521325
 C          1.1765376897       -2.7419512080       -1.7030176538
 C         -0.2050206703       -3.1938752974       -2.0684423145
 H         -0.4547165802       -3.3059633759       -3.1128555147
 H         -0.6989301104       -3.9052661582       -1.4223560555
 H          1.8800360898       -2.5433793670       -2.4983991135
 H          1.6178196297       -3.1588587593       -0.8100580744
 H         -0.0891959201       -0.9886547672       -2.2258279414
