  62
        -98.94736955
 C         -1.7736781432       -1.1834591264       -0.4403543398
 C         -1.2271645748       -1.8639315575        0.6776303303
 C         -0.0999490769       -2.7694187802        0.3891327604
 C          0.3606473027       -2.8849344415       -0.8683654696
 C          1.5358152308       -3.7186204543       -1.2872303895
 C          2.8433735526       -2.9165413774       -1.2420163998
 C          3.0833409945       -2.1841487977        0.0784297701
 H          4.0652675056       -1.7092916500        0.0138603199
 H          2.3534789564       -1.3798647860        0.1921134700
 C          3.0274753224       -3.0760175674        1.3258729102
 H          3.1525544800       -4.1231625677        1.0454012604
 H          3.8604147231       -2.8116386192        1.9808175101
 C          1.7485784829       -2.9148091342        2.1505682303
 H          1.5649947454       -1.8521829437        2.3310304501
 H          1.9080671418       -3.3886747144        3.1235038704
 C          0.4815429014       -3.5332269213        1.5450621105
 H          0.6786742189       -4.5693359418        1.2585845007
 H         -0.2888141686       -3.5321658194        2.3220992005
 H          3.6710645210       -3.6029045794       -1.4304192897
 H          2.8262580143       -2.1745321275       -2.0435446599
 H          1.6083402288       -4.5867731644       -0.6349195094
 H          1.3654942499       -4.0578424441       -2.3106199495
 O         -0.1855402358       -2.2160207704       -1.9156841497
 C         -1.2531065437       -1.3545642079       -1.7270076598
 O         -1.6507351425       -0.8035846971       -2.7729657999
 H         -0.9238331388        0.6499006919        1.3227047198
 C         -1.3094361669        1.4561404627        0.7178741897
 C         -2.3447118275        1.2240692250       -0.1758466602
 C         -2.8384545451        2.2915476760       -0.9167009804
 C         -2.2997236221        3.5572131648       -0.7730729907
 C         -1.2364409315        3.7744677424        0.0847504592
 C         -0.7334042540        2.7137363914        0.8288075394
 N          0.3708081965        2.8912285090        1.6831141793
 S          1.6711012640        1.8455743859        1.5296022894
 O          1.3215462010        0.5374390068        2.0134884897
 O          2.7533846857        2.5152981835        2.2178262392
 C          2.0121437438        1.7949287847       -0.2198602806
 C          1.3334142716        0.8929592662       -1.0136331504
 C          1.5549619115        0.8981385454       -2.3814495004
 C          2.4535876236        1.8002138132       -2.9296527006
 C          3.1332141458        2.6976440317       -2.1191834409
 C          2.9075119759        2.7019694925       -0.7522998408
 H          3.4176444275        3.3779194015       -0.0852672310
 H          3.8336849674        3.3949075900       -2.5499265210
 H          2.6230839436        1.8005192826       -3.9948185107
 H          1.0106645999        0.2032802966       -3.0029748903
 H          0.6395544200        0.2010006879       -0.5620513702
 H          0.7029813487        3.8445004682        1.7290427391
 H         -0.7948837692        4.7550172114        0.1776688990
 H         -2.6946007402        4.3780999456       -1.3515589908
 H         -3.6391240655        2.1205057778       -1.6202625803
 C         -2.9042222208       -0.1692635537       -0.3562260399
 H         -3.4049005610       -0.1961517127       -1.3346725899
 C         -3.9381859915       -0.4618201011        0.7123408702
 C         -5.3380900903        0.0401448422        0.5307192502
 C         -5.0463396237       -1.4255680085        0.4182464305
 H         -5.3751891852       -2.0851761176        1.2069133606
 H         -5.0678507549       -1.8762701687       -0.5635714995
 H         -5.8725812094        0.3926925536        1.3993194302
 H         -5.5673756291        0.5794515025       -0.3756553199
 H         -3.5301793314       -0.4661038619        1.7144100802
 O         -1.6409346144       -1.7463718963        1.8606231203
