  62
        -98.94105800
 C          2.0147015274       -0.3628390661       -0.0674646539
 C          3.1054779339       -1.0951419672       -0.6054553031
 C          4.3345000745       -0.3367327431       -0.8705167380
 C          4.3453578521        0.9903684259       -0.6521880592
 C          5.5421470447        1.8787619607       -0.8264604391
 C          6.3433039786        1.9911865097        0.4783434043
 C          6.6475369827        0.6446697670        1.1353734449
 H          7.2402537282        0.8463114634        2.0303067941
 H          5.7110535669        0.1902909356        1.4671106963
 C          7.4004080259       -0.3455531305        0.2357451368
 H          7.8626063866        0.1875980685       -0.5958300526
 H          8.2054370029       -0.8023652492        0.8152533878
 C          6.5410335110       -1.4875435351       -0.3100497835
 H          6.0053234857       -1.9681182819        0.5126882665
 H          7.2078624255       -2.2359180587       -0.7463860714
 C          5.5217625717       -1.0986777704       -1.3883587852
 H          6.0215988690       -0.5406559310       -2.1827098298
 H          5.1214301253       -2.0223865588       -1.8164534665
 H          7.2777961872        2.5135996076        0.2656828673
 H          5.7699926758        2.5953952647        1.1854569254
 H          6.1723901817        1.4799095975       -1.6190378687
 H          5.1942812414        2.8718311972       -1.1160756483
 O          3.2643790894        1.6702017109       -0.1972131774
 C          2.0757472236        1.0195226098        0.1190338509
 O          1.1895413364        1.7837438735        0.5422003354
 H         -1.1864956432        0.4101322696        1.4215924438
 C         -1.3409026797        0.2937022508        0.3603385515
 C         -0.4461635888       -0.4568128658       -0.3860671058
 C         -0.6510369095       -0.5678299655       -1.7580428938
 C         -1.7176303299        0.0654936149       -2.3679496763
 C         -2.6007400405        0.8258710487       -1.6222700170
 C         -2.4030336326        0.9449210671       -0.2530554174
 N         -3.2939692801        1.7205632453        0.5073992186
 S         -4.9330888888        1.4925932751        0.2779612498
 O         -5.3613680193        2.1756561784       -0.9172889253
 O         -5.5548744231        1.9241615536        1.5100193679
 C         -5.1167651883       -0.2695889483        0.0672824909
 C         -5.4891935614       -0.7864626640       -1.1564796023
 C         -5.5704826214       -2.1619141149       -1.3060296603
 C         -5.2761017352       -2.9917900285       -0.2357770954
 C         -4.9069559318       -2.4569270895        0.9892706952
 C         -4.8235160789       -1.0830814130        1.1441212139
 H         -4.5467933623       -0.6323193897        2.0836941443
 H         -4.6811515085       -3.1050752713        1.8208463258
 H         -5.3357992807       -4.0620909388       -0.3551673983
 H         -5.8593694171       -2.5807451394       -2.2564866714
 H         -5.7104939334       -0.1060677157       -1.9623338540
 H         -3.0552786013        1.7800626680        1.4857469206
 H         -3.4281419416        1.3423900516       -2.0811912080
 H         -1.8612555696       -0.0279460846       -3.4336966649
 H          0.0455308353       -1.1514356264       -2.3440808385
 C          0.7443837750       -1.1394098359        0.2352080021
 H          0.8905065642       -2.1018092800       -0.2816091175
 C          0.5409722160       -1.4693457600        1.7067019904
 C          1.7120031834       -1.8060364541        2.5793601444
 C          0.9373876567       -0.5463696393        2.8183447631
 H          0.3018208617       -0.4964719097        3.6909513486
 H          1.3902112537        0.3972338511        2.5572728461
 H          1.6149067249       -2.6154624917        3.2869874457
 H          2.6964340382       -1.7235252474        2.1419865740
 H         -0.3602293070       -2.0547593947        1.8628476709
 O          3.0522413511       -2.3292810281       -0.8524707479
