  62
        -98.93038478
 C          2.3752796655        0.5768261087        0.5588716554
 C          3.2056906497        0.4652565506       -0.5832874307
 C          4.3274530578       -0.4829534999       -0.4683640697
 C          4.4829392786       -1.2112560549        0.6503730238
 C          5.5297689416       -2.2634305357        0.9054783055
 C          6.9895654330       -1.7734893594        0.9645023368
 C          7.7446147789       -1.8730053995       -0.3668041884
 H          8.7642098039       -2.2091968308       -0.1674968680
 H          7.2753257901       -2.6435278021       -0.9796817595
 C          7.8521781735       -0.5744789810       -1.1720035433
 H          8.6264470258        0.0565306476       -0.7294168462
 H          8.1774542860       -0.8331831662       -2.1819978777
 C          6.5759871240        0.2624470540       -1.2619577454
 H          6.4082118278        0.7781825820       -0.3133031551
 H          6.7308285346        1.0406062631       -2.0120833436
 C          5.3045438397       -0.5371516896       -1.6068809502
 H          5.5527636457       -1.5688111569       -1.8511857333
 H          4.8050662441       -0.0889439507       -2.4680971807
 H          7.0155478669       -0.7518738998        1.3428385852
 H          7.5036181259       -2.4008765384        1.6944870279
 H          5.4394221057       -3.0398710690        0.1424305959
 H          5.2645155753       -2.7082622040        1.8667465719
 O          3.6390490679       -1.0994572861        1.7135901095
 C          2.5887310348       -0.2005683159        1.7003779770
 O          1.9194239696       -0.1811340251        2.7539959984
 O          3.0365320999        1.1042393610       -1.6521377072
 C          1.1947181756        1.5307770581        0.6405452423
 C         -0.0571704776        0.8801694753        0.1108406611
 C         -0.0944106093        0.3066852175       -1.1564370931
 C         -1.2566096661       -0.2776200828       -1.6256996541
 C         -2.3992728780       -0.3077544237       -0.8449878344
 C         -2.3724555539        0.2589111005        0.4217466723
 C         -1.2047695063        0.8492778893        0.8890488083
 H         -1.1843401109        1.2792863517        1.8818393420
 N         -3.5249301443        0.2176688874        1.2237018052
 S         -4.9786839841        0.7356767083        0.5619580458
 O         -4.7622489521        1.7191699110       -0.4733285343
 O         -5.7783927923        1.1548061060        1.6919178214
 C         -5.6857852831       -0.7423235353       -0.1338380443
 C         -5.8837223953       -1.8250629409        0.7004427261
 C         -6.4419052055       -2.9799113507        0.1762911313
 C         -6.7926803969       -3.0315227920       -1.1647082938
 C         -6.5903670115       -1.9348225970       -1.9884311573
 C         -6.0319259230       -0.7765712625       -1.4703952466
 H         -5.8525040927        0.0989988664       -2.0739605160
 H         -6.8641633910       -1.9768718632       -3.0304398765
 H         -7.2266773434       -3.9319428718       -1.5699448975
 H         -6.6009619891       -3.8348403029        0.8136165388
 H         -5.6012742015       -1.7435329779        1.7368333404
 H         -3.3933598902        0.5986032552        2.1494885040
 H         -3.3058093222       -0.7642512634       -1.2073360318
 H         -1.2731758532       -0.7169855398       -2.6116045334
 H          0.7949319511        0.3307851884       -1.7676940420
 H          1.0439359888        1.7040521993        1.7182208194
 C          1.4776027303        2.8863999161        0.0064034869
 C          0.8131621881        3.3844808283       -1.2379520659
 C          0.4493826111        3.9762200249        0.0884071445
 H          0.7727735989        4.9798460550        0.3197678329
 H         -0.5165711169        3.7186621185        0.4982332935
 H          1.4111610370        3.9661099269       -1.9226063877
 H          0.0901117185        2.7496912510       -1.7249686603
 H          2.5108489593        3.1871736207        0.1468774672
