  62
        -98.94392814
 C          2.0726403773        1.3053107922        0.2552546336
 C          2.2324223604        0.5626039883       -0.9397028246
 C          3.0612753210       -0.6491687342       -0.8406256582
 C          3.6009831887       -0.9931962434        0.3422520480
 C          4.3998684825       -2.2382518934        0.5947517200
 C          3.4945548568       -3.3989779786        1.0318690680
 C          2.2734307457       -3.5987069679        0.1343058383
 H          1.7147648685       -4.4519797679        0.5250120903
 H          1.6277306231       -2.7211594690        0.2140503344
 C          2.6043625694       -3.8392795084       -1.3450134098
 H          1.9978999655       -4.6704382705       -1.7111231650
 H          3.6500699228       -4.1305686450       -1.4498314187
 C          2.3196072078       -2.6438817565       -2.2559269668
 H          1.2947570006       -2.2975893181       -2.0967370229
 H          2.3901317326       -2.9818095443       -3.2934025124
 C          3.2662518318       -1.4470238356       -2.0985075166
 H          4.3012295955       -1.7865154795       -2.1732607134
 H          3.0707551922       -0.7592408096       -2.9265319525
 H          3.1455360898       -3.2012094769        2.0479300932
 H          4.0893209515       -4.3138258647        1.0492359568
 H          5.1186669556       -2.0303965233        1.3889525669
 H          4.9415022830       -2.5069122965       -0.3101615014
 O          3.4291093394       -0.2578300779        1.4685945217
 C          2.6728797908        0.9002697593        1.4537030057
 O          2.6113977041        1.4808780989        2.5548464053
 O          1.7179695743        0.8677853427       -2.0503476898
 C          1.2648411344        2.5926813757        0.3443579112
 C         -0.2158062034        2.3074105402        0.4297905022
 C         -0.9506723562        2.6672157749        1.5533997352
 C         -2.3066615538        2.3976876867        1.6255760634
 C         -2.9541435622        1.7538255817        0.5863954836
 C         -2.2231794890        1.3748028036       -0.5325168527
 C         -0.8680866200        1.6604861538       -0.6099555684
 H         -0.3058979692        1.3615360748       -1.4821135346
 N         -2.8577487805        0.6827721032       -1.5783668369
 S         -3.8866003514       -0.5664709410       -1.1590543450
 O         -3.8173226266       -1.5090707538       -2.2534749920
 O         -5.1966943704       -0.0339398489       -0.8761024434
 C         -3.2078947440       -1.2840583911        0.3294872263
 C         -1.8978308050       -1.7206927375        0.3206606869
 C         -1.3676205520       -2.2682006733        1.4773638685
 C         -2.1507753787       -2.3718907682        2.6167568629
 C         -3.4655550953       -1.9340007361        2.6083301499
 C         -4.0004480678       -1.3831047081        1.4549976730
 H         -5.0157659699       -1.0246553679        1.4046398718
 H         -4.0725068586       -2.0165465966        3.4953762124
 H         -1.7293754909       -2.7954750179        3.5146724606
 H         -0.3436860073       -2.6069620982        1.4885264056
 H         -1.3079371656       -1.6283619565       -0.5781992269
 H         -2.2296227229        0.4124685074       -2.3213823162
 H         -4.0100313018        1.5391708296        0.6236075735
 H         -2.8655965222        2.6885449183        2.5016817546
 H         -0.4488692175        3.1514722107        2.3782918120
 H          1.5686107404        3.0642851285        1.2880912848
 C          1.5630161679        3.5577954429       -0.7874950094
 C          1.2687082131        5.0135912821       -0.5946590142
 C          2.6883247120        4.5347115430       -0.6389254774
 H          3.2871900568        4.7669314582       -1.5068050737
 H          3.2490724121        4.5142598664        0.2844964596
 H          0.8894193621        5.5775744483       -1.4329582247
 H          0.8676897729        5.3211039191        0.3592625341
 H          1.3984807896        3.1362880582       -1.7701777334
