  62
        -98.94043698
 C         -1.5872340203       -1.4862710998       -0.0459966652
 C         -2.5583385187       -0.9913197558        0.8520420932
 C         -3.2418574874        0.2532620181        0.4571748925
 C         -2.8958965306        0.8482222408       -0.6981125938
 C         -3.4318434628        2.1361869822       -1.2599837280
 C         -2.5508804973        3.3232791655       -0.8359445213
 C         -2.9269516702        3.9625699492        0.4997195439
 H         -2.1575427395        4.7010397734        0.7360982723
 H         -3.8723846514        4.4981606133        0.3913100498
 C         -3.0488468211        2.9889457836        1.6744048634
 H         -2.2253923535        2.2726592836        1.6444542579
 H         -2.9451126405        3.5611873057        2.5984477246
 C         -4.3904082521        2.2414208966        1.7007125685
 H         -5.0773895595        2.7161289645        1.0005055596
 H         -4.8411883259        2.3409127321        2.6905170653
 C         -4.3069646869        0.7374773215        1.4035149627
 H         -4.1168550628        0.1939771158        2.3347958263
 H         -5.2799597673        0.3924778004        1.0371621186
 H         -1.5177859673        2.9710238919       -0.7946014569
 H         -2.6076527788        4.0944272974       -1.6064669686
 H         -3.3884786207        2.0409306054       -2.3466986940
 H         -4.4660342243        2.2849998016       -0.9640277469
 O         -1.9299826553        0.3526349977       -1.5199411174
 C         -1.2605931125       -0.8234458496       -1.2293880189
 O         -0.4196318793       -1.1646242180       -2.0794994446
 O         -2.8384435892       -1.5599739463        1.9435059563
 C         -0.8605142086       -2.7766609149        0.2846364053
 C          0.6300954358       -2.5462574676        0.2975271984
 C          1.5383483768       -3.3840369195       -0.3353691194
 C          2.8942274015       -3.1040025562       -0.3015564301
 C          3.3747463557       -1.9935517629        0.3668762781
 C          2.4749008964       -1.1520500794        1.0103260452
 C          1.1186289575       -1.4359367734        0.9766067639
 H          0.4201684534       -0.7780330572        1.4797879718
 N          2.9522920248       -0.0198503704        1.7038347207
 S          3.7710012372        1.1578576597        0.8410117042
 O          4.9362924898        0.5668768679        0.2351430701
 O          4.0111447215        2.2236393916        1.7869849031
 C          2.6422383553        1.7196915715       -0.4206399002
 C          2.3930429932        0.9102369918       -1.5111147595
 C          1.4901185989        1.3394765612       -2.4708902595
 C          0.8635268529        2.5674908933       -2.3286032965
 C          1.1294802654        3.3723104508       -1.2305095257
 C          2.0199086846        2.9420995960       -0.2605530774
 H          2.2537944383        3.5326715066        0.6108140655
 H          0.6449916843        4.3304840862       -1.1271176357
 H          0.1598792376        2.8953976475       -3.0776880978
 H          1.2658899454        0.7023086095       -3.3106093356
 H          2.8972408371       -0.0383154595       -1.5988349383
 H          2.2453928668        0.4233005295        2.2738079116
 H          4.4251848232       -1.7530856341        0.3851766691
 H          3.5875940157       -3.7610963210       -0.8043955513
 H          1.1860534987       -4.2543470838       -0.8639011692
 H         -1.1773774837       -3.0416095641        1.3044932447
 C         -1.2959953436       -3.8777396029       -0.6598779171
 C         -1.2887703662       -5.3076455928       -0.2108028802
 C         -2.5892046018       -4.5865779622       -0.3952434890
 H         -3.2138464593       -4.8516818329       -1.2350675646
 H         -3.1435666318       -4.2933426260        0.4844061406
 H         -1.0229013743       -6.0720624319       -0.9253197504
 H         -0.9628084885       -5.5138401981        0.7974752795
 H         -1.0467217430       -3.6617580638       -1.6928493674
