  62
        -98.94324033
 C          1.2873456484        1.0360223076       -0.0143584553
 C          1.7860209673       -0.0450755535        0.7518652184
 C          2.7239856099       -0.9421881183        0.0638059572
 C          3.0375821568       -0.7038736282       -1.2228750975
 C          4.0210559616       -1.5039479235       -2.0261089627
 C          5.4354993521       -0.9175352197       -1.9157603915
 C          5.8788380632       -0.6391383622       -0.4794413187
 H          6.9011840358       -0.2574620293       -0.5234662900
 H          5.2569243200        0.1564431141       -0.0628249529
 C          5.8282797228       -1.8607394175        0.4489325499
 H          5.7891577232       -2.7753117101       -0.1440158574
 H          6.7496947532       -1.8939047979        1.0341181092
 C          4.6674579345       -1.8518200687        1.4450982221
 H          4.6498683045       -0.8971852732        1.9766585013
 H          4.8493562652       -2.6355380482        2.1852476738
 C          3.2755205807       -2.0983074267        0.8497200053
 H          3.2909607634       -3.0057699399        0.2425457347
 H          2.5816702785       -2.2505284036        1.6815723507
 H          6.1342173657       -1.6115404872       -2.3866369291
 H          5.4646543971        0.0225989825       -2.4715979670
 H          4.0162094391       -2.5346161720       -1.6762939418
 H          3.7096979949       -1.4835485180       -3.0720339287
 O          2.5208634132        0.3317161909       -1.9335622847
 C          1.6334700429        1.2284656766       -1.3516469040
 O          1.2303429657        2.1225215617       -2.1191164315
 O          1.4577773640       -0.2513092386        1.9494313655
 C          0.3093780004        1.9914064053        0.6370372405
 C         -1.0472949412        1.9483234085       -0.0239598647
 C         -1.9307482040        3.0210211547        0.0322429184
 C         -3.1970786589        2.9261465729       -0.5187970712
 C         -3.6155046503        1.7614680641       -1.1380520423
 C         -2.7384912960        0.6900474630       -1.2077383313
 C         -1.4737941730        0.7841350409       -0.6477141170
 H         -0.8054565027       -0.0670803337       -0.6970760092
 N         -3.1750455286       -0.5234153156       -1.8015825612
 S         -4.0724382565       -1.4677344859       -0.7422100883
 O         -4.2457441945       -2.7472176738       -1.3917908127
 O         -5.2741084007       -0.7498454903       -0.4044911614
 C         -3.0227327967       -1.6320122774        0.6893352560
 C         -3.0624626003       -0.6548732013        1.6637523835
 C         -2.1534364786       -0.7150804404        2.7075727187
 C         -1.2210349419       -1.7394876273        2.7566953642
 C         -1.1972826795       -2.7148525351        1.7719292332
 C         -2.1000721302       -2.6585577716        0.7226756679
 H         -2.1100341599       -3.3944497713       -0.0662483731
 H         -0.4677865020       -3.5081040164        1.8118636032
 H         -0.4985239827       -1.7685897105        3.5561987325
 H         -2.1643189826        0.0447886177        3.4723103965
 H         -3.7982796470        0.1294399511        1.5874867924
 H         -2.4080466280       -1.0821146141       -2.1507907168
 H         -4.6040445124        1.6598698681       -1.5546816799
 H         -3.8686139029        3.7691523055       -0.4627943802
 H         -1.6252458335        3.9351610034        0.5150151567
 H          0.1846254238        1.6168278843        1.6653315580
 C          0.8878662117        3.3918972583        0.6976457150
 C          0.6343402688        4.2739816187        1.8826847045
 C          1.9907370347        3.6737929564        1.6726606546
 H          2.8017566851        4.3159819318        1.3636276947
 H          2.2972930183        2.8646111461        2.3195381543
 H          0.5147288637        5.3344738129        1.7190146588
 H          0.0289469343        3.8780518521        2.6840350517
 H          0.9564264865        3.8543619805       -0.2805241002
