  62
        -98.94578300
 C         -1.8086444841       -1.3783480722       -0.4820386142
 C         -1.5041767099       -0.1277967555       -1.0726602987
 C         -2.5618341689        0.8901002103       -0.9997737180
 C         -3.7414038591        0.6012150663       -0.4232266466
 C         -4.9331701502        1.5151237427       -0.3252776825
 C         -4.8915152352        2.4859438026        0.8620872672
 C         -3.8778672201        3.6234436599        0.7336766035
 H         -4.0192207414        4.1303971328       -0.2213712285
 H         -4.1013392975        4.3448528218        1.5221809117
 C         -2.4149535962        3.1796020715        0.8716984496
 H         -1.8841821980        3.8580086716        1.5438234451
 H         -2.3709714178        2.1892775863        1.3317436691
 C         -1.6268687009        3.1422078016       -0.4375480892
 H         -1.5196622254        4.1561296228       -0.8308577171
 H         -0.6290945645        2.7596477558       -0.2063531490
 C         -2.2498070619        2.2582330125       -1.5260800979
 H         -1.5246658354        2.1479169786       -2.3360353786
 H         -3.1491281522        2.7293977073       -1.9234206727
 H         -5.8878010104        2.9233399927        0.9606713800
 H         -4.6854793860        1.9177542805        1.7722041022
 H         -5.0357668981        2.0795252081       -1.2527055908
 H         -5.8077051308        0.8706543589       -0.2114000355
 O         -4.0026986212       -0.6158487554        0.1239593995
 C         -3.0429196045       -1.6132416745        0.1321113131
 O         -3.4109275772       -2.6653170746        0.6942360176
 O         -0.4252647380        0.1444211181       -1.6599728714
 C         -0.8337918795       -2.5464411385       -0.4348504011
 C          0.1031514609       -2.3925306790        0.7405158473
 C          0.0283660276       -3.2754603766        1.8116315993
 C          0.8644644360       -3.1286218851        2.9036546914
 C          1.7783377756       -2.0928173731        2.9503048947
 C          1.8602817593       -1.2001349573        1.8854335295
 C          1.0361804026       -1.3644383380        0.7812765158
 H          1.0922229369       -0.6628169688       -0.0337938904
 N          2.7943312013       -0.1583724741        1.9184560102
 S          2.5128855315        1.3470117162        1.2342112930
 O          3.2810909509        2.2539555679        2.0651065481
 O          1.1043496041        1.6311245785        1.1231781086
 C          3.3129186857        1.2386324602       -0.3520275546
 C          2.5833581608        1.1810176270       -1.5208856096
 C          3.2642863042        1.0902464593       -2.7265024254
 C          4.6493223730        1.0602707648       -2.7428802793
 C          5.3676004857        1.1213855160       -1.5575207319
 C          4.6951826443        1.2119428544       -0.3508804164
 H          5.2125963576        1.2759203669        0.5919104247
 H          6.4453849007        1.0987731548       -1.5723729519
 H          5.1712815195        0.9895044211       -3.6842860884
 H          2.7012445291        1.0398717034       -3.6449789311
 H          1.5048936440        1.1905220050       -1.4844666432
 H          3.3045589211       -0.0772651066        2.7853196008
 H          2.4239316274       -1.9686093417        3.8067582873
 H          0.7967629129       -3.8199708682        3.7300880723
 H         -0.7057982900       -4.0678017139        1.7908885245
 H         -1.4522771849       -3.4353319369       -0.2483965228
 C         -0.0721535106       -2.7618188688       -1.7272836106
 C          0.5005563321       -4.1170166136       -2.0096191541
 C         -0.6752191455       -3.6210081091       -2.7956745701
 H         -0.5282035461       -3.3386289025       -3.8271612071
 H         -1.6431710437       -4.0589075180       -2.5978986838
 H          1.4590634045       -4.1777831537       -2.5014234106
 H          0.3295532404       -4.8947302346       -1.2805260197
 H          0.4942223625       -1.8982261812       -2.0473467534
