  62
        -98.93653127
 C         -1.8737450033       -1.1696773777        0.2942826984
 C         -2.4558741716       -0.1378708173        1.0737648995
 C         -3.8718092537        0.1718363466        0.8177603373
 C         -4.5378740285       -0.5268176194       -0.1171488607
 C         -5.9875792197       -0.4191142306       -0.5192782905
 C         -6.5821205513        0.9884487733       -0.6597672085
 C         -5.6020924372        2.0592394428       -1.1609459755
 H         -4.6874019410        1.5893459285       -1.5267517370
 H         -6.0544800551        2.5892119065       -2.0011979806
 C         -5.2491813648        3.0939625094       -0.0896806529
 H         -4.8720574689        3.9942284156       -0.5809660994
 H         -6.1609845752        3.3708067050        0.4441305900
 C         -4.1914528794        2.6561856887        0.9230312051
 H         -4.1183487427        3.4316336418        1.6896911343
 H         -3.2133378852        2.5967686232        0.4369149837
 C         -4.4521377563        1.3065290886        1.6118127623
 H         -3.9198197166        1.3097027527        2.5670390732
 H         -5.5121869642        1.1616459422        1.8060975887
 H         -6.9966031069        1.3066984180        0.2957476263
 H         -7.4200300168        0.9084871565       -1.3543632237
 H         -6.5821975953       -0.9882018124        0.2012668540
 H         -6.0553567096       -0.9422306700       -1.4761354011
 O         -3.9425465228       -1.5144038772       -0.8401078675
 C         -2.6101087678       -1.8591456055       -0.6683161288
 O         -2.2357712662       -2.7793790920       -1.4192886479
 O         -1.8223773073        0.4896361080        1.9649810046
 C         -0.4084542910       -1.4880153464        0.5462137373
 C          0.4463676062       -0.8828424764       -0.5417423501
 C          0.5658806036       -1.4678453570       -1.7986493055
 C          1.3323132443       -0.8665986312       -2.7798406473
 C          2.0094527031        0.3131395001       -2.5249819944
 C          1.8957589299        0.9071197264       -1.2742587762
 C          1.1142905369        0.3094000997       -0.2948714521
 H          1.0187688210        0.7939831420        0.6658054827
 N          2.5737463087        2.1060158215       -0.9835784148
 S          3.5387878150        2.1558723574        0.3842160717
 O          2.7241963377        2.1897301309        1.5707629933
 O          4.4140314689        3.2880263377        0.1741039764
 C          4.4704648175        0.6372829781        0.3076102199
 C          4.0291670009       -0.4700850476        1.0028647507
 C          4.7160764510       -1.6656830497        0.8625565071
 C          5.8249341667       -1.7325206841        0.0334274816
 C          6.2596955529       -0.6093936370       -0.6539044916
 C          5.5742798841        0.5870103262       -0.5213740611
 H          5.8834058043        1.4854874312       -1.0306331206
 H          7.1258641648       -0.6638817159       -1.2934548238
 H          6.3539341125       -2.6661169223       -0.0746206644
 H          4.3804538916       -2.5401203898        1.3970388379
 H          3.1654791194       -0.3741634701        1.6408872259
 H          3.0733037884        2.4915348465       -1.7726781868
 H          2.6123777895        0.7780117462       -3.2904259172
 H          1.4093081094       -1.3262293601       -3.7534299463
 H          0.0262161613       -2.3766348120       -2.0107630888
 H         -0.1652594667       -0.9704293791        1.4845050977
 C         -0.1457659460       -2.9684717584        0.7324100894
 C          1.0991311405       -3.3994706897        1.4456495591
 C         -0.2363546734       -3.5572626905        2.1069513308
 H         -0.6479439166       -4.5494919781        2.2152568333
 H         -0.4857320936       -2.8915091030        2.9207750523
 H          1.6105048390       -4.2846768051        1.1008176301
 H          1.7527014416       -2.6232434452        1.8137924180
 H         -0.4975437795       -3.5794881167       -0.0879413140
