  62
        -98.93911054
 C         -1.9315799859       -1.0481185973       -0.2492023451
 C         -3.0314599908       -1.1152367009        0.6446042240
 C         -4.2775348499       -0.4477853149        0.2334279134
 C         -4.3197503794        0.1933663382       -0.9490660760
 C         -5.4456239431        0.9250108352       -1.6492972094
 C         -6.7151205131        1.3083874837       -0.8935390328
 C         -6.5203710447        2.3743869863        0.1843618711
 H         -6.2952196130        3.3255927084       -0.3047267265
 H         -7.4635186490        2.4926896373        0.7222385948
 C         -5.4057087449        2.1003426974        1.1910483175
 H         -4.4427640148        2.0771302346        0.6762543179
 H         -5.3739107172        2.9399146866        1.8909082814
 C         -5.5627262725        0.8200087900        2.0090344502
 H         -6.5362068824        0.8167006462        2.5031662653
 H         -4.7930699555        0.8302678363        2.7855646385
 C         -5.4073366380       -0.4922137798        1.2213524797
 H         -6.3365229376       -0.7715545532        0.7304964647
 H         -5.1607767731       -1.2853818855        1.9331308094
 H         -7.1854616443        0.4237625011       -0.4745173587
 H         -7.4085066199        1.7135822870       -1.6356162835
 H         -4.9953570923        1.8280868069       -2.0738502021
 H         -5.7265385499        0.2931860350       -2.4992689157
 O         -3.2392010750        0.2271543661       -1.7801903270
 C         -2.0305625885       -0.3711435980       -1.4627986331
 O         -1.1604691154       -0.2177526697       -2.3446610444
 O         -2.9784042642       -1.7255288729        1.7453530239
 C         -0.6541690889       -1.7448633933        0.1888038668
 C          0.3510851564       -0.7592006643        0.7349649396
 C          0.7279125143       -0.7930792443        2.0723534102
 C          1.6607939011        0.1025747608        2.5663870848
 C          2.2383035583        1.0463175404        1.7367553586
 C          1.8656243322        1.0889880857        0.3989746298
 C          0.9350736706        0.1871305538       -0.0955696802
 H          0.6414218226        0.2336632168       -1.1336724978
 N          2.4581591221        2.0378140255       -0.4547569326
 S          4.1313421754        2.1124923042       -0.4336287251
 O          4.5611051583        2.9375641325        0.6684104449
 O          4.5174200022        2.5702551568       -1.7499044695
 C          4.6599439905        0.4290344194       -0.1665225828
 C          5.3621214813        0.0993550738        0.9745591806
 C          5.7180643618       -1.2235109690        1.1836078788
 C          5.3624360722       -2.1890858827        0.2551476417
 C          4.6601382166       -1.8408713673       -0.8885033845
 C          4.3028344602       -0.5202435154       -1.1037271639
 H          3.7578341873       -0.2182708932       -1.9840186574
 H          4.3852814702       -2.5925864894       -1.6108590798
 H          5.6332689448       -3.2196785026        0.4215466850
 H          6.2660136941       -1.4967622979        2.0708874845
 H          5.6135634527        0.8814480813        1.6721618303
 H          2.1066357523        1.9981632861       -1.4006032994
 H          2.9643495227        1.7546699966        2.1019840590
 H          1.9411696099        0.0658985476        3.6078413434
 H          0.2729175212       -1.5201175223        2.7289374976
 H         -0.9588937741       -2.4010848655        1.0147350696
 C         -0.0335569252       -2.6001667298       -0.8992390574
 C          0.9302057301       -3.6792357234       -0.5103699630
 C         -0.4336146202       -4.0388975387       -1.0171260142
 H         -0.5242023274       -4.4683031991       -2.0036571332
 H         -1.1591765694       -4.4154059513       -0.3108508675
 H          1.7797974407       -3.8646617602       -1.1487253464
 H          1.1320162429       -3.8126676906        0.5413379463
 H          0.1539400902       -2.0609865987       -1.8184414326
