  62
        -98.94434705
 C         -1.6027833598       -1.3875375001        0.5227129395
 C         -1.6234561108       -0.0879184801        1.0903805394
 C         -2.7599778112        0.7598099892        0.7160934589
 C         -3.7038127606        0.2805674686       -0.1143751915
 C         -4.9420000208        1.0088283478       -0.5626414420
 C         -4.7214794809        1.9315546379       -1.7690253420
 C         -3.9343533119        3.2084993484       -1.4729141817
 H         -4.3893019025        3.7256454181       -0.6275613519
 H         -4.0367126619        3.8570138182       -2.3452778118
 C         -2.4411815318        2.9809718093       -1.1978899711
 H         -1.8526958220        3.7088156096       -1.7605037809
 H         -2.1504219811        1.9908378095       -1.5571469109
 C         -2.0380333125        3.1127266496        0.2706453390
 H         -2.1996615533        4.1403894996        0.6025208089
 H         -0.9710672224        2.8923877003        0.3508556295
 C         -2.7855335823        2.1700146092        1.2226059988
 H         -3.8127545426        2.5067525386        1.3607938784
 H         -2.2768824527        2.1851282796        2.1893113990
 H         -5.7065654310        2.2153869772       -2.1467158924
 H         -4.2154712103        1.3646395281       -2.5540658317
 H         -5.3490754515        1.5851886076        0.2685506978
 H         -5.6680858803        0.2428497373       -0.8435750623
 O         -3.6448072396       -0.9693919014       -0.6433770614
 C         -2.5809498592       -1.8201988107       -0.3728387209
 O         -2.6434949082       -2.9080239708       -0.9762596709
 O         -0.7382823014        0.3388857605        1.8780699397
 C         -0.4246373494       -2.2863486993        0.8625274100
 C          0.5188913811       -2.2862086988       -0.3150154196
 C          0.5395721321       -3.2915861288       -1.2735706596
 C          1.3956821325       -3.2022312584       -2.3570926492
 C          2.2578741319       -2.1292612878       -2.4929352789
 C          2.2452107409       -1.1182127478       -1.5382032490
 C          1.3698108605       -1.1977264383       -0.4671993293
 H          1.3477585097       -0.4035258383        0.2645814806
 N          3.1024864902       -0.0121508273       -1.6441057587
 S          3.8885677793        0.5489131033       -0.2725744884
 O          5.0845060991        1.1876538440       -0.7827945480
 O          4.0969119796       -0.5121285565        0.6848584617
 C          2.8240500583        1.8060920127        0.3972858211
 C          2.4981977879        2.8786379624       -0.4098693891
 C          1.7150675771        3.8937956820        0.1130431905
 C          1.2742546666        3.8199319818        1.4267466303
 C          1.6083120170        2.7359963720        2.2225561305
 C          2.3931987878        1.7182102125        1.7050182009
 H          2.6709441381        0.8562006127        2.2907519911
 H          1.2545493066        2.6711163819        3.2385733204
 H          0.6634486359        4.6111222314        1.8324384800
 H          1.4469045468        4.7376108518       -0.5023558996
 H          2.8663326383        2.9017119226       -1.4222007890
 H          3.7267126006       -0.0396871169       -2.4375236085
 H          2.9350977422       -2.0701859575       -3.3318673187
 H          1.3990535133       -3.9849666184       -3.1007743192
 H         -0.1297463974       -4.1308659293       -1.1808736598
 H          0.0884959800       -1.7865916890        1.6960964702
 C         -0.8440875187       -3.6682779496        1.3136177399
 C          0.1573812716       -4.5403542489        2.0081823404
 C         -0.9826903191       -3.9475064296        2.7789394099
 H         -1.7792238888       -4.5992645300        3.1052588596
 H         -0.7700763399       -3.1409406994        3.4653990999
 H          0.1465395623       -5.6006585189        1.8072299404
 H          1.1451023913       -4.1333694383        2.1672619907
 H         -1.5575098481       -4.1423954500        0.6517092097
