  62
        -98.94335798
 C         -2.2872546968       -0.5584651982        0.0443061757
 C         -3.2034354726       -0.2546696424        1.0876564463
 C         -4.1720970862        0.8150200157        0.8217214014
 C         -4.1315893066        1.4549568752       -0.3606793642
 C         -5.0918752594        2.5238243908       -0.7930044325
 C         -6.2919223603        1.9223836957       -1.5381140897
 C         -6.9436354076        0.7454601045       -0.8119929982
 H         -7.7955180970        0.4233290681       -1.4148067257
 H         -6.2388927305       -0.0887403841       -0.7810723027
 C         -7.4165150572        1.0619517935        0.6137717407
 H         -7.4932787976        2.1415541851        0.7474908042
 H         -8.4171106648        0.6465167065        0.7507114791
 C         -6.5360050180        0.4759458004        1.7191153001
 H         -6.3799471022       -0.5902361238        1.5363747718
 H         -7.0726778369        0.5701162005        2.6668814675
 C         -5.1649476740        1.1390857019        1.9022927915
 H         -5.2887947338        2.2194778676        1.9996413970
 H         -4.7321738783        0.7569134628        2.8312776417
 H         -7.0310099324        2.7101748734       -1.6946953934
 H         -5.9529224637        1.5750280079       -2.5169044015
 H         -5.4325231122        3.0738472475        0.0820636943
 H         -4.5671062844        3.2090827383       -1.4607948114
 O         -3.2268375651        1.1579965007       -1.3254502944
 C         -2.2938701599        0.1442232509       -1.1603944021
 O         -1.5534006042       -0.0057567902       -2.1546284347
 H          0.4119227923       -0.2542394849       -1.2014685651
 C          0.8280944432       -0.4953595114       -0.2343292315
 C          0.0632164125       -1.2122256573        0.6750417542
 C          0.6121565818       -1.5048092974        1.9180931983
 C          1.8937114691       -1.0919311319        2.2381180393
 C          2.6520999126       -0.3776996186        1.3281104324
 C          2.1109370603       -0.0752212061        0.0854550286
 N          2.8688928220        0.6676671650       -0.8410112729
 S          4.3586184778        0.0308482419       -1.2908776690
 O          4.6462682517        0.6050771778       -2.5871613288
 O          4.3618405234       -1.4122022104       -1.2124286713
 C          5.4921394522        0.7056258628       -0.0946610218
 C          6.2649724709       -0.1414892217        0.6752679165
 C          7.1480845458        0.4060750762        1.5929541896
 C          7.2424592234        1.7831899848        1.7230256607
 C          6.4608857988        2.6202328793        0.9402991742
 C          5.5770759957        2.0794575138        0.0201555379
 H          4.9549596182        2.6933077790       -0.6097474910
 H          6.5373518562        3.6906313004        1.0440965491
 H          7.9294780087        2.2069979696        2.4383603462
 H          7.7568679441       -0.2427749653        2.2018733227
 H          6.1526856244       -1.2056508491        0.5427534356
 H          2.3404792882        0.9193555139       -1.6650192559
 H          3.6503004820       -0.0520248240        1.5714772319
 H          2.3065858708       -1.3276642563        3.2069855027
 H          0.0225834099       -2.0537118045        2.6379206645
 C         -1.3188131973       -1.6993036640        0.3085077778
 H         -1.7289276872       -2.2194741725        1.1847119412
 C         -1.2389632974       -2.6889414959       -0.8388570360
 C         -0.7605923610       -4.0818533489       -0.5649415611
 C         -2.2023868967       -3.8346072015       -0.8912646050
 H         -2.5774320757       -4.1480019800       -1.8540192276
 H         -2.9262333703       -3.9153273155       -0.0933644300
 H         -0.5073027026       -4.3315830991        0.4542053225
 H         -0.1393243113       -4.5663289938       -1.3025987314
 H         -0.9549347526       -2.2360031196       -1.7801691301
 O         -3.2134851033       -0.8620719643        2.1910799310
