  62
        -98.94089363
 C          1.2108110602        1.3206787031        0.0459772794
 C          2.0500453208        0.8529311647        1.0808888810
 C          2.7779897787       -0.4025396561        0.8239219746
 C          2.5944230969       -1.0431190734       -0.3460637457
 C          3.1714565903       -2.3407001017       -0.8727490541
 C          4.3528345038       -3.0125565759       -0.1777915294
 C          5.6732378234       -2.2495625458       -0.2813080728
 H          6.4141617050       -2.7612261471        0.3368806004
 H          6.0187510653       -2.2925926031       -1.3172944907
 C          5.6186141164       -0.7786382649        0.1235147101
 H          6.6181712486       -0.3568155399       -0.0127611943
 H          4.9477150856       -0.2375378082       -0.5467099698
 C          5.1968257271       -0.5133213555        1.5671884156
 H          5.3484463803        0.5515407487        1.7642140867
 H          5.8412602664       -1.0729805516        2.2480810652
 C          3.7308331999       -0.8409808422        1.8987936360
 H          3.4565296086       -0.2819608841        2.7985193524
 H          3.6028664370       -1.8976087699        2.1214154952
 H          4.4936488055       -3.9797189942       -0.6680924990
 H          4.1121828958       -3.2198057735        0.8607251873
 H          2.3362986707       -3.0480398137       -0.8934334313
 H          3.4373692675       -2.1452274732       -1.9163294966
 O          1.7367821790       -0.5729082441       -1.2980826406
 C          1.0337255091        0.6088945455       -1.1396091379
 O          0.3046675605        0.9076996009       -2.1014550266
 O          2.1801359583        1.4521856081        2.1837410109
 C          0.4412518599        2.6147314793        0.2395668474
 C         -1.0381266785        2.3358765913        0.1478156541
 C         -1.9076295074        3.0397628207       -0.6736006103
 C         -3.2487276937        2.6983921267       -0.7326878920
 C         -3.7526635055        1.6598790466        0.0281296382
 C         -2.8924201245        0.9576280048        0.8630609684
 C         -1.5512885884        1.2993076790        0.9192119346
 H         -0.8825883429        0.7460541570        1.5676879008
 N         -3.3949776767       -0.1066676751        1.6448216368
 S         -3.9740716352       -1.4355544564        0.8050478862
 O         -5.1361603863       -1.0392060237        0.0524557424
 O         -4.1760216312       -2.4617154484        1.8027092686
 C         -2.6564198658       -1.9085154448       -0.2987848873
 C         -2.5375144683       -1.2769429380       -1.5204688956
 C         -1.4849781184       -1.6220174457       -2.3525569540
 C         -0.5745448133       -2.5864909119       -1.9501234276
 C         -0.7055714430       -3.2084165194       -0.7179200172
 C         -1.7523822408       -2.8636044243        0.1209553492
 H         -1.8939223314       -3.3277442347        1.0841230736
 H          0.0021352661       -3.9606466977       -0.4060110382
 H          0.2445085251       -2.8462474137       -2.6021477914
 H         -1.3670444751       -1.1245108251       -3.3010170791
 H         -3.2646575702       -0.5333431431       -1.8031513144
 H         -2.7367449944       -0.4243502413        2.3430324997
 H         -4.7894569762        1.3693121368       -0.0219300804
 H         -3.9110422134        3.2491711182       -1.3832744412
 H         -1.5354187588        3.8502565823       -1.2780115971
 H          0.6670059322        2.9416550973        1.2654242015
 C          0.9256110448        3.6736597739       -0.7275587075
 C          0.8020321388        5.1260433095       -0.3789417208
 C          2.1478943343        4.4673232879       -0.3798363576
 H          2.8444750937        4.7138943925       -1.1670767609
 H          2.6194319721        4.2620490284        0.5702623050
 H          0.5765609639        5.8288733105       -1.1667035129
 H          0.3609141773        5.3758480188        0.5741428815
 H          0.7979521800        3.3814084646       -1.7636893853
