  62
        -98.94411385
 C          1.5196451969        1.4964286708        0.3956518300
 C          1.7615627896        0.3060070131        1.1245979713
 C          2.8999200659       -0.5014351052        0.6728657305
 C          3.6162673695       -0.1067558677       -0.3954301905
 C          4.8125939052       -0.8157541720       -0.9706375287
 C          4.4591359742       -1.9593635192       -1.9316254266
 C          3.8981619110       -3.2179245477       -1.2684679711
 H          3.9024878404       -4.0059358995       -2.0240708073
 H          4.5666513492       -3.5324004389       -0.4664325587
 C          2.4715486041       -3.0645863574       -0.7225513823
 H          2.0004151605       -2.1870496614       -1.1716821710
 H          1.8740931211       -3.9306427680       -1.0144566111
 C          2.3833471471       -2.9476975770        0.7986287997
 H          2.7260951402       -3.8768611961        1.2587275971
 H          1.3352406295       -2.7991067407        1.0660074463
 C          3.1863334634       -1.7844165648        1.3928400975
 H          2.8829457669       -1.6550626468        2.4346018821
 H          4.2531841291       -2.0052468110        1.3645086174
 H          3.7449447078       -1.5865041018       -2.6694578863
 H          5.3740594815       -2.2314617053       -2.4630996400
 H          5.3815053580       -0.0651207457       -1.5235013246
 H          5.4364672581       -1.1976445742       -0.1620336237
 O          3.3345233719        1.0294470017       -1.0859005849
 C          2.2816495786        1.8553342685       -0.7166352168
 O          2.1444648924        2.8561463905       -1.4446245077
 H         -1.2650015825        0.3741420143        0.2584611709
 C         -1.4508765301        1.2191621834       -0.3900053060
 C         -0.6979165413        2.3779699133       -0.2341478072
 C         -0.9428556746        3.4527120443       -1.0787806943
 C         -1.9146884916        3.3628947724       -2.0595957285
 C         -2.6763536478        2.2176146653       -2.1973455772
 C         -2.4449463738        1.1381494752       -1.3516177011
 N         -3.2072991314       -0.0360976772       -1.4611078961
 S         -3.8061843215       -0.7564839778       -0.0695341754
 O         -5.0386172419       -1.3897907881       -0.4925027907
 O         -3.9186750385        0.1933672780        1.0115401414
 C         -2.6384991424       -2.0373930196        0.3286398868
 C         -2.0786010009       -2.0943762580        1.5885333315
 C         -1.2367728339       -3.1502135655        1.9001020712
 C         -0.9697376908       -4.1237982313        0.9496856151
 C         -1.5317810578       -4.0461037559       -0.3158298946
 C         -2.3781192167       -2.9961227233       -0.6310193557
 H         -2.8467584761       -2.9085571971       -1.5970457385
 H         -1.3167476280       -4.8025839422       -1.0533037821
 H         -0.3177100570       -4.9465983415        1.1976925448
 H         -0.7900222871       -3.2022495503        2.8801979536
 H         -2.3052093060       -1.3151158813        2.2989681699
 H         -3.9137092292       -0.0051336818       -2.1825578374
 H         -3.4454917766        2.1547716595       -2.9525903703
 H         -2.0891216487        4.2010920184       -2.7172147534
 H         -0.3617202524        4.3540779106       -0.9800000479
 C          0.3703177560        2.3897651757        0.8307476110
 H         -0.0468734532        1.9103921770        1.7279023894
 C          0.8534930721        3.7759075884        1.2011402438
 C         -0.0270707942        4.6679651667        2.0225353746
 C          1.2066864490        4.0696722923        2.6269403859
 H          2.0489229769        4.7151978800        2.8262083479
 H          1.0893708372        3.2713074444        3.3450975371
 H         -0.9851936911        4.2748063374        2.3283322397
 H         -0.0336784233        5.7260330366        1.8095414114
 H          1.4684530293        4.2319777436        0.4344965428
 O          1.0661419825       -0.0586242641        2.1099649634
