  62
        -98.94128450
 C         -2.4109548766       -1.0466787499       -0.5646904661
 C         -3.4818303826       -0.5697963079        0.2373641938
 C         -4.0035063393        0.7625733781       -0.0875862221
 C         -3.4565598096        1.4486038343       -1.1072018840
 C         -3.8449917961        2.8398976947       -1.5135199693
 C         -2.9884703735        3.8883102635       -0.7897964299
 C         -2.8996742752        3.6786486840        0.7220745048
 H         -2.3507149033        2.7547946409        0.9227788103
 H         -2.3000325978        4.4963057875        1.1283622233
 C         -4.2564026809        3.6326198373        1.4391847258
 H         -5.0261023858        4.0712425845        0.8031540426
 H         -4.1942113049        4.2432925646        2.3423025420
 C         -4.6962189408        2.2342413222        1.8767592951
 H         -3.8867862468        1.7539112574        2.4328374871
 H         -5.5432212681        2.3424724426        2.5593484088
 C         -5.1339970263        1.2898503508        0.7502071028
 H         -5.5980903208        0.4139224419        1.2126287030
 H         -5.8791146088        1.7844599721        0.1239941265
 H         -3.4030712329        4.8763828642       -0.9979421709
 H         -1.9750909720        3.8509254857       -1.1968788418
 H         -3.6927839393        2.9396058045       -2.5894953208
 H         -4.8979398261        2.9974929520       -1.2882261648
 O         -2.4434326210        0.9582252144       -1.8623226950
 C         -1.8821041111       -0.2844065462       -1.6063027613
 O         -0.9471948912       -0.5698265919       -2.3824433455
 H          0.5568000107       -1.4549108355       -0.9944215119
 C          0.5590670169       -1.7286251154        0.0504495083
 C         -0.5953684029       -2.2483257819        0.6191055093
 C         -0.5839510436       -2.5614758508        1.9733083094
 C          0.5537500175       -2.3575318056        2.7350062605
 C          1.7007506002       -1.8340894697        2.1652199599
 C          1.6949556124       -1.5099419019        0.8150359029
 N          2.8559072567       -0.9543013929        0.2207943688
 S          3.2388342487        0.6053599196        0.7557224785
 O          3.4627364509        0.5586212178        2.1779552753
 O          2.2422199535        1.5530619778        0.2999967974
 C          4.7814991344        0.8748079362       -0.0934423043
 C          4.7817707242        1.5416141694       -1.3031813579
 C          5.9830875683        1.7147752692       -1.9727220920
 C          7.1558471924        1.2168675833       -1.4254091746
 C          7.1389611050        0.5486562706       -0.2100913102
 C          5.9414420895        0.3728704560        0.4644461398
 H          5.8799577207       -0.1326664246        1.4136963994
 H          8.0533844369        0.1646491104        0.2123675252
 H          8.0888197567        1.3530433015       -1.9491194293
 H          5.9984937786        2.2354830421       -2.9167439647
 H          3.8470723655        1.9188549608       -1.6874623190
 H          2.7399225768       -0.9015960243       -0.7847450251
 H          2.5841732154       -1.6476716945        2.7528584826
 H          0.5462735864       -2.6044562649        3.7859523356
 H         -1.4833193978       -2.9468577048        2.4317811654
 C         -1.8505488157       -2.4141152182       -0.2043221309
 H         -2.6129601499       -2.8740687721        0.4386408645
 C         -1.6259984358       -3.3159025858       -1.4010792936
 C         -1.5357697428       -4.7958634997       -1.1849067827
 C         -2.7367114729       -4.2090122518       -1.8624290551
 H         -2.8623384665       -4.3665704623       -2.9230721882
 H         -3.6665877361       -4.1741661560       -1.3137061320
 H         -1.6516756273       -5.1603117966       -0.1754741851
 H         -0.8344115248       -5.3608344580       -1.7792110273
 H         -0.9957455990       -2.8775055805       -2.1633733130
 O         -3.9830041095       -1.2368443762        1.1816782963
