  62
        -98.93877121
 C         -1.4342666699       -1.5494950418        0.5146988415
 C         -2.2346508667       -1.0251021820       -0.5262561003
 C         -3.1645610943        0.0687564575       -0.1647947053
 C         -3.1261981026        0.5742707668        1.0814346376
 C         -3.9506782838        1.6854020062        1.6797719190
 C         -3.5478179904        3.0827929674        1.1881494774
 C         -3.3693910444        3.1984692351       -0.3222417125
 H         -3.0180464581        4.2109142254       -0.5370125759
 H         -2.5935202822        2.5030989022       -0.6434329866
 C         -4.6317690562        2.9510850959       -1.1442185120
 H         -4.4025719096        3.2200138250       -2.1783085309
 H         -5.4262788547        3.6155066105       -0.7983196321
 C         -5.1527559238        1.5108050858       -1.1380311526
 H         -5.7375728698        1.3013360039       -0.2459541105
 H         -5.8360686839        1.4074941039       -1.9856634865
 C         -4.0718225562        0.4483488444       -1.3106647307
 H         -4.5503474804       -0.4889020889       -1.6182075931
 H         -3.4205848592        0.7228322162       -2.1478665031
 H         -4.3052226770        3.7934411357        1.5239782298
 H         -2.6018623100        3.3552647883        1.6635642303
 H         -3.7940194889        1.6386764267        2.7601027125
 H         -5.0058425820        1.5068143465        1.4933022120
 O         -2.2467719516        0.1123323190        2.0197484461
 C         -1.4106716678       -0.9560344778        1.7783124610
 O         -0.6963446031       -1.2802174550        2.7504080310
 O         -2.2102563390       -1.4428696628       -1.7121625672
 C         -0.4964822363       -2.7319856179        0.3108030742
 C          0.7697654081       -2.2060465985       -0.3190188602
 C          0.9665725696       -2.1347399890       -1.6924190095
 C          2.1187613154       -1.5617316483       -2.2036130798
 C          3.0880594933       -1.0422261622       -1.3637185366
 C          2.8936376079       -1.1027766948        0.0102321195
 C          1.7470376050       -1.6888395359        0.5219963184
 H          1.5872267823       -1.7181508148        1.5920414443
 N          3.8506255925       -0.5318798718        0.8737978001
 S          4.2406086270        1.0648408148        0.5470761186
 O          5.2839561162        1.1072885159       -0.4468916655
 O          4.5686716698        1.6563643793        1.8253037650
 C          2.7504884510        1.7853847116       -0.1233079302
 C          1.5888832468        1.7105480985        0.6199445312
 C          0.4205188706        2.2326650518        0.0908699523
 C          0.4330300046        2.8241415662       -1.1628565715
 C          1.6081426365        2.8968565995       -1.8939157722
 C          2.7783475994        2.3682807718       -1.3735866937
 H          3.7117740297        2.3923060547       -1.9119392581
 H          1.6132093441        3.3571809964       -2.8686595900
 H         -0.4795688509        3.2294012010       -1.5706294420
 H         -0.4943708736        2.1638783506        0.6588003015
 H          1.5981828943        1.2477936031        1.5947543883
 H          3.6157849976       -0.6405961077        1.8504978590
 H          3.9848582268       -0.5820395584       -1.7464850673
 H          2.2607038043       -1.5115217850       -3.2722294433
 H          0.2029242586       -2.5036497763       -2.3572057924
 H         -0.2417860654       -3.0836509577        1.3200823604
 C         -1.1285436522       -3.8771773037       -0.4494640910
 C         -0.4608969539       -5.2180280416       -0.4195115670
 C         -1.7501167717       -5.0059725236        0.3143463217
 H         -2.6483665490       -5.4592436648       -0.0773506491
 H         -1.7216830875       -4.9592702961        1.3935887766
 H         -0.4713812753       -5.8198612530       -1.3150870166
 H          0.4439456701       -5.3121430668        0.1622374264
 H         -1.6174173146       -3.5752397077       -1.3655832898
