  62
        -98.94301208
 C          2.0302793794       -0.1479917126       -0.9687953529
 C          2.8872543098       -1.0817085415       -0.3355426137
 C          4.2921247060       -0.6714151119       -0.2017702447
 C          4.6969584648        0.5210551392       -0.6722640339
 C          6.0983580527        1.0665631674       -0.6249620838
 C          6.4611386544        1.7436798233        0.7038428746
 C          6.6704000399        0.7925505169        1.8829008736
 H          7.3787462393        0.0138330031        1.5983355426
 H          7.1301416033        1.3735832734        2.6848765431
 C          5.3815177650        0.1504319087        2.4148720129
 H          5.3685778319        0.2102745898        3.5055264382
 H          4.5177481569        0.7138932310        2.0540247558
 C          5.2050880199       -1.3208192081        2.0393751213
 H          5.9924074898       -1.9153243966        2.5080614627
 H          4.2447743577       -1.6617321396        2.4338979059
 C          5.2209242597       -1.5934860822        0.5297109273
 H          6.2343329755       -1.4992814622        0.1405928975
 H          4.8742516313       -2.6160538911        0.3625188083
 H          5.6801185873        2.4662137528        0.9522447373
 H          7.3881096025        2.2991853991        0.5434582835
 H          6.8100824920        0.2672403576       -0.8336018964
 H          6.1683285825        1.8110366204       -1.4210874144
 O          3.8467723917        1.3876403563       -1.2848431834
 C          2.5055909001        1.0822831970       -1.4345342309
 O          1.8433150575        1.9745107925       -2.0038991253
 H         -1.5126215045        1.3313556516       -0.9622183456
 C         -1.3149679225        0.8027604351       -0.0417947661
 C         -0.2791168701       -0.1175316768        0.0259221878
 C         -0.0467136334       -0.7760782921        1.2295064539
 C         -0.8286021394       -0.5067315657        2.3374172944
 C         -1.8720288727        0.3998824171        2.2614777035
 C         -2.1185320510        1.0555005285        1.0620955217
 N         -3.1843953273        1.9697075785        0.9392843256
 S         -4.3587795086        1.6421207789       -0.2095523516
 O         -3.7835244530        1.6908085836       -1.5284817975
 O         -5.4256164779        2.5779723620        0.0652048260
 C         -4.8938000009       -0.0165864238        0.1738730968
 C         -6.0066319586       -0.1893487906        0.9738701432
 C         -6.3820357728       -1.4736426615        1.3334644317
 C         -5.6333201094       -2.5574662770        0.9002062335
 C         -4.5166209865       -2.3670094277        0.1009242909
 C         -4.1400746527       -1.0855680625       -0.2693677441
 H         -3.2785726299       -0.9050414134       -0.8912035874
 H         -3.9320050910       -3.2085270159       -0.2343914913
 H         -5.9214116644       -3.5570091508        1.1851991823
 H         -7.2521482863       -1.6249300806        1.9517989188
 H         -6.5592751077        0.6822465631        1.2856497835
 H         -3.6293524790        2.1934542644        1.8188143274
 H         -2.4882470825        0.6026319679        3.1245317772
 H         -0.6316945393       -1.0172985317        3.2677842333
 H          0.7558704935       -1.4948411588        1.2870137361
 C          0.5493797505       -0.3975355490       -1.2052994278
 H          0.2491877784        0.3267398507       -1.9752712356
 C          0.2527310190       -1.7918439468       -1.7254202053
 C         -0.9796545769       -2.0088789267       -2.5488070815
 C          0.3731733188       -2.0652826694       -3.1925358638
 H          0.7579538417       -3.0233043098       -3.5079745371
 H          0.6681777028       -1.2449007414       -3.8313213193
 H         -1.5275001327       -2.9307106321       -2.4270974247
 H         -1.6008596244       -1.1501796802       -2.7613289160
 H          0.5553165399       -2.5775776401       -1.0461217927
 O          2.5261071042       -2.2047470498        0.1037965087
