  62
        -98.94448739
 C         -1.4284723546       -1.1485521283       -0.5005043898
 C         -2.7887675127       -1.4676101680       -0.2739921495
 C         -3.7491072084       -0.3782901020       -0.4953858930
 C         -3.2977196738        0.8261658409       -0.8911230793
 C         -4.1578583788        2.0394048642       -1.0930636165
 C         -4.2547690498        2.8703644855        0.1940262572
 C         -4.6104787247        2.0491430206        1.4333343163
 H         -3.7898909017        1.3624631500        1.6535528190
 H         -4.6835344529        2.7427242933        2.2737872342
 C         -5.9176025992        1.2530894804        1.3136930236
 H         -6.4911260993        1.3800976356        2.2343749761
 H         -6.5223052104        1.6525716877        0.4987005964
 C         -5.7275362089       -0.2514908560        1.1120061473
 H         -5.0473552107       -0.6403631020        1.8740346735
 H         -6.6949991001       -0.7393343609        1.2583810675
 C         -5.2034766269       -0.6793577102       -0.2648060219
 H         -5.2988984795       -1.7670662256       -0.3328213180
 H         -5.8189489237       -0.2320997651       -1.0480578932
 H         -5.0032263423        3.6508893891        0.0454739465
 H         -3.2898765954        3.3515048150        0.3683578948
 H         -3.7100265435        2.6515791632       -1.8774418876
 H         -5.1501723269        1.7267058412       -1.4121566293
 O         -1.9848406671        1.0924753195       -1.1070660357
 C         -1.0142680088        0.1194363910       -0.9101324185
 O          0.1469739846        0.5030334386       -1.1345643680
 H          2.2692081203       -1.3859932197       -0.3570582607
 C          1.8386599754       -1.3564052201        0.6288891701
 C          0.5316342527       -1.7616103403        0.8459459951
 C          0.0185017115       -1.7039042896        2.1402423989
 C          0.7957925289       -1.2552975794        3.1897174186
 C          2.0979813840       -0.8408783306        2.9680570526
 C          2.6173118713       -0.8903661013        1.6801265538
 N          3.9374200379       -0.4880936412        1.4321931230
 S          4.3695255082        0.2738338101        0.0135000577
 O          4.4001306270       -0.6714646800       -1.0746927833
 O          5.6422405324        0.8923564327        0.3298335526
 C          3.1721613132        1.5574665680       -0.3032823574
 C          2.8631405148        1.8563150665       -1.6129072808
 C          1.9869452737        2.8951500943       -1.8772361080
 C          1.4328982051        3.6123346643       -0.8304220352
 C          1.7531624289        3.3003900558        0.4807728170
 C          2.6357851521        2.2679470177        0.7506544157
 H          2.8956399163        2.0104622973        1.7648184426
 H          1.3128780481        3.8544046613        1.2949271818
 H          0.7394110418        4.4125196775       -1.0376910387
 H          1.7286719287        3.1312807969       -2.8972964991
 H          3.2998992307        1.2607179916       -2.3986588563
 H          4.4271509963       -0.1013289019        2.2254668554
 H          2.7083975161       -0.4863112971        3.7847442191
 H          0.3860300151       -1.2212811381        4.1878840668
 H         -1.0034992328       -2.0153238346        2.3081230262
 C         -0.3759128613       -2.2190810909       -0.2677994515
 H         -0.9287277479       -3.1040874675        0.0779097336
 C          0.3513116449       -2.5694056356       -1.5476710779
 C          1.0964839139       -3.8659366033       -1.6431336491
 C         -0.1750175059       -3.6732791883       -2.4126721849
 H         -0.1179440785       -3.5593556528       -3.4848658455
 H         -1.0606213320       -4.1918850490       -2.0753928881
 H          2.0315807038       -3.8828999429       -2.1823459950
 H          1.0746694222       -4.5170957619       -0.7822598559
 H          0.7729186895       -1.7056107187       -2.0489259676
 O         -3.1807992801       -2.6067116867        0.0976587454
