  62
        -98.93880979
 C         -1.7286690722       -0.6447321510        0.9142180114
 C         -2.1565495738        0.1070277883       -0.2091246319
 C         -2.0713591194        1.5707711338       -0.0813492437
 C         -1.5456975281        2.1075569283        1.0327354066
 C         -1.2420668070        3.5640411454        1.2391389586
 C          0.0461499587        3.9309940678        0.4727694801
 C         -0.1606471095        4.9346715910       -0.6606901929
 H         -0.3177502530        5.9289952540       -0.2361598529
 H          0.7652750359        4.9616713541       -1.2397094120
 C         -1.3286249655        4.6320285976       -1.6044990461
 H         -2.2631379310        4.9673475204       -1.1508214434
 H         -1.1808601310        5.2396253426       -2.4999784767
 C         -1.4875294832        3.1651325390       -2.0266839440
 H         -0.5392910487        2.6302565037       -1.9522315400
 H         -1.7811626490        3.1440501276       -3.0787601481
 C         -2.5629060542        2.3888512634       -1.2421612969
 H         -3.3410752681        3.0788040473       -0.9023592420
 H         -3.0298709509        1.6667007079       -1.9184636204
 H          0.4774059907        3.0161361968        0.0583673204
 H          0.7816292144        4.3427179286        1.1665965038
 H         -1.1088216615        3.7256312880        2.3093173435
 H         -2.0779123394        4.1692848597        0.8952207722
 O         -1.1271746557        1.3564018636        2.0845457570
 C         -1.1885552991       -0.0284444206        2.0437967915
 O         -0.7271889004       -0.5872366221        3.0593768511
 O         -2.5876741746       -0.4054576783       -1.2742246923
 C         -1.6227790311       -2.1627224251        0.8637549568
 C         -0.8740066095       -2.5153826688       -0.3985163352
 C         -1.3387652158       -3.3703352953       -1.3866773880
 C         -0.6024237780       -3.5553771330       -2.5453225335
 C          0.5861864630       -2.8796026071       -2.7514659117
 C          1.0635971385       -2.0274743158       -1.7608770785
 C          0.3515000180       -1.8864051219       -0.5841182121
 H          0.7227653637       -1.2269615036        0.1869935581
 N          2.2618506699       -1.3157183840       -1.9196438859
 S          2.4390053757        0.1956687167       -1.2211066279
 O          1.2046564036        0.9434750441       -1.1907937737
 O          3.5236619594        0.8019852959       -1.9662567103
 C          3.0081721517       -0.1548827909        0.4279333200
 C          2.3995442158        0.4473257472        1.5102274237
 C          2.8629593738        0.1664997739        2.7855637167
 C          3.9283968343       -0.7038567153        2.9540778236
 C          4.5363421744       -1.2946334497        1.8560889578
 C          4.0743316170       -1.0196461347        0.5794881052
 H          4.5184347411       -1.4585350190       -0.2982257758
 H          5.3649865850       -1.9706031779        1.9928858251
 H          4.2836769799       -0.9228005408        3.9486418605
 H          2.3764521619        0.6180474635        3.6353412215
 H          1.5627049594        1.1087321218        1.3449036983
 H          2.6712020140       -1.3610600509       -2.8411032539
 H          1.1359812000       -2.9976750021       -3.6728968069
 H         -0.9753497218       -4.2161951322       -3.3133291868
 H         -2.2892269123       -3.8640946337       -1.2674526114
 H         -0.9786589202       -2.4243169016        1.7200606927
 C         -2.9216202583       -2.9266877821        1.0565790724
 C         -4.0560066960       -2.3253683834        1.8306232709
 C         -4.1952520135       -2.5612849490        0.3581461666
 H         -4.8426926423       -3.3615005505        0.0295796995
 H         -4.1742504170       -1.7133834645       -0.3068175395
 H         -4.6071291406       -2.9570167965        2.5111399845
 H         -3.9374858567       -1.3079522151        2.1751374722
 H         -2.7432333636       -3.9860583312        1.2152304106
