  62
        -98.94455734
 C          2.6195226280        1.2461924187        0.1240130863
 C          2.6394719548        0.2926223592       -0.9224943592
 C          3.4803681759       -0.8931432170       -0.6970546813
 C          4.1778748088       -1.0082628363        0.4468052672
 C          5.0230884338       -2.1886539714        0.8258912523
 C          4.2101991583       -3.2228234235        1.6171750297
 C          2.8737498803       -3.5880948259        0.9702049565
 H          2.4059349447       -4.3500971263        1.5975590645
 H          2.2139766129       -2.7166478897        0.9859415785
 C          2.9854925121       -4.1115188098       -0.4685318577
 H          4.0079830331       -4.4350864660       -0.6672784406
 H          2.3407628626       -4.9868507673       -0.5723154543
 C          2.5522293446       -3.1124269137       -1.5431860739
 H          1.5633232204       -2.7154191836       -1.2949682921
 H          2.4571998355       -3.6519964300       -2.4896007871
 C          3.5058626471       -1.9342180881       -1.7806595598
 H          4.5201086827       -2.3080363403       -1.9338489898
 H          3.1846929235       -1.4260782516       -2.6946018709
 H          4.8165922644       -4.1228941094        1.7332067571
 H          4.0077681176       -2.8178375543        2.6112884187
 H          5.4295301973       -2.6429391122       -0.0755005061
 H          5.8469197340       -1.8352241592        1.4481172157
 O          4.1522377169       -0.0644278970        1.4207987454
 C          3.3660151053        1.0662237509        1.2938195188
 O          3.4214079054        1.8368616893        2.2725671020
 H         -0.0088986417        1.2078542253       -1.4999739079
 C         -0.4382702140        1.4719723093       -0.5452520514
 C          0.3345293992        2.1537637640        0.3839417909
 C         -0.2225884359        2.4467732292        1.6237077155
 C         -1.5192915927        2.0662165168        1.9214134578
 C         -2.2833356341        1.3799554122        0.9941126413
 C         -1.7310818749        1.0725021635       -0.2420053878
 N         -2.4908931656        0.3494313292       -1.1835132047
 S         -3.0703177559       -1.1451953481       -0.6735842731
 O         -2.2334410517       -1.7137517703        0.3589368986
 O         -3.2304600892       -1.9298079175       -1.8785647003
 C         -4.6813656618       -0.7643677780       -0.0167333672
 C         -5.5871684807       -0.1314537936       -0.8456230284
 C         -6.8470331186        0.1698589912       -0.3537902178
 C         -7.1793389890       -0.1680239628        0.9498698900
 C         -6.2601365438       -0.8066159919        1.7680905982
 C         -4.9972724783       -1.1094146439        1.2825869677
 H         -4.2475005526       -1.5992563407        1.8834229313
 H         -6.5201365844       -1.0690442018        2.7810601192
 H         -8.1605515969        0.0675640104        1.3306325728
 H         -7.5645473438        0.6664386454       -0.9869299019
 H         -5.2895955345        0.1093866818       -1.8524642273
 H         -2.0136357972        0.2450494952       -2.0687176949
 H         -3.2903816381        1.0713152529        1.2233496715
 H         -1.9380993600        2.3017210918        2.8879667124
 H          0.3789573057        2.9576421167        2.3619076037
 C          1.7706925208        2.5100033811        0.0820856314
 H          2.1393714876        3.1397140099        0.9023825174
 C          1.9135278036        3.2815916022       -1.2144725461
 C          1.5118193308        4.7244882673       -1.2454827583
 C          2.9605122659        4.3477355962       -1.3175517123
 H          3.4812244946        4.4680760086       -2.2556856122
 H          3.5790121244        4.5263753612       -0.4498603584
 H          1.0351765963        5.1072599827       -2.1347498400
 H          1.1475995936        5.1605904774       -0.3276179644
 H          1.7280191047        2.6863282170       -2.0983355366
 O          2.0000133192        0.4016956781       -2.0039593252
