  62
        -98.93911868
 C          2.3863360237        1.2643601879       -0.0218555708
 C          3.1305594965        0.4893307089        0.8947890718
 C          3.8012584354       -0.7131484303        0.3638902322
 C          3.6621668359       -1.0050645704       -0.9429516303
 C          4.1956177780       -2.2026252134       -1.6815243715
 C          3.3655656383       -3.4706648488       -1.4133824018
 C          2.9340311672       -3.6664383101        0.0385934377
 H          2.3761860855       -2.7867027892        0.3674415204
 H          2.2408950886       -4.5118044464        0.0679548747
 C          4.0649255304       -3.9533856441        1.0240079882
 H          4.5587734353       -4.8841068454        0.7357061872
 H          3.6093698490       -4.1094117295        2.0053672875
 C          5.1307339062       -2.8647361983        1.1572001528
 H          5.7477895181       -3.1195966930        2.0238437349
 H          5.7925182131       -2.8653275203        0.2955860547
 C          4.5901905164       -1.4605356901        1.4122696267
 H          3.9523590844       -1.4811026831        2.3033106421
 H          5.4322895871       -0.8083258209        1.6744666894
 H          2.4579095097       -3.4125460536       -2.0197989398
 H          3.9384383192       -4.3379721069       -1.7450813536
 H          5.2409729327       -2.3585779877       -1.4324373886
 H          4.1368405615       -1.9689840095       -2.7466537535
 O          2.9278216630       -0.2305901623       -1.7914026347
 C          2.2647422969        0.9053491087       -1.3639499375
 O          1.6227509817        1.4946443444       -2.2534124664
 O          3.2194959480        0.7756674162        2.1208341480
 C          1.6358826662        2.4850006909        0.4810742275
 C          0.1547194738        2.2602725790        0.2967936170
 C         -0.6935967769        3.1602896362       -0.3329291050
 C         -2.0346000785        2.8578323729       -0.5006796713
 C         -2.5586354877        1.6633246474       -0.0423820232
 C         -1.7204655875        0.7599702839        0.5986103398
 C         -0.3808883120        1.0674406656        0.7686571435
 H          0.2720924735        0.3585186975        1.2642043424
 N         -2.2437969315       -0.4579161516        1.0766305114
 S         -3.0038165504       -1.4495931557       -0.0503692347
 O         -2.8868423890       -2.7885312844        0.4866202019
 O         -2.4805059901       -1.2418817194       -1.3810720462
 C         -4.7080867580       -0.9414719550        0.0277411406
 C         -5.3543930780       -0.5208898342       -1.1178370847
 C         -6.6839473706       -0.1369448199       -1.0337367104
 C         -7.3389033646       -0.1802513296        0.1875385621
 C         -6.6753480408       -0.6066522236        1.3285947292
 C         -5.3470961958       -0.9936082714        1.2512459315
 H         -4.7957214996       -1.3351626575        2.1112411468
 H         -7.1880555614       -0.6386212964        2.2763888513
 H         -8.3729207858        0.1199158270        0.2502659143
 H         -7.2010844912        0.1945990063       -1.9197989296
 H         -4.8010166940       -0.4976621012       -2.0432351844
 H         -1.5711208743       -0.9971817197        1.6037893234
 H         -3.5998808053        1.4214811734       -0.1805482385
 H         -2.6805847550        3.5630399067       -1.0009166598
 H         -0.3030543048        4.0925192715       -0.7061476105
 H          1.8443503749        2.5322645367        1.5603394352
 C          2.1527205520        3.7478707932       -0.1725323754
 C          2.0345511920        5.0635139536        0.5355077739
 C          3.3738316782        4.4071562170        0.3927778553
 H          4.0909543710        4.8355786877       -0.2911440166
 H          3.8207132844        3.9566824851        1.2671273154
 H          1.8339507215        5.9478116802       -0.0500810004
 H          1.5733886647        5.0654444441        1.5114306596
 H          2.0472651881        3.7317656125       -1.2513096994
