  62
        -98.94585981
 C          1.6921144396        1.3095492305        0.4218142494
 C          1.2983799397        0.2177881204       -0.3886820105
 C          1.9121898403       -1.0752282294       -0.0652489807
 C          2.7396686406       -1.1806669091        0.9887547991
 C          3.4224469112       -2.4358594289        1.4601279489
 C          4.7207179411       -2.7624405684        0.7086600486
 C          4.5366953509       -3.2687581185       -0.7226563314
 H          5.5014042010       -3.6630207581       -1.0481793817
 H          3.8283035112       -4.0977412887       -0.7235410112
 C          4.0791466002       -2.1964015386       -1.7211558013
 H          4.6794082100       -2.2665709084       -2.6309305914
 H          4.2557578900       -1.2055441586       -1.2963729313
 C          2.6116815002       -2.3023333292       -2.1361439309
 H          2.3878179397       -1.4766569493       -2.8159963208
 H          2.4502255304       -3.2377269292       -2.6761251408
 C          1.6205514605       -2.2366614795       -0.9665159706
 H          0.6139956403       -2.1000504099       -1.3694929703
 H          1.6396687310       -3.1676505895       -0.3998973006
 H          5.3528791708       -1.8713293382        0.7024419284
 H          5.2410951816       -3.5342759782        1.2804908084
 H          2.7312779815       -3.2762575991        1.3853446891
 H          3.6628030314       -2.2802903988        2.5143552188
 O          3.0446937505       -0.1215725990        1.7860768390
 C          2.5297748099        1.1377359608        1.5253524291
 O          2.8837575498        2.0133187310        2.3423577390
 O          0.4793379794        0.3069704801       -1.3400289603
 C          1.1209809090        2.7015455403        0.2094000095
 C         -0.3703025510        2.6042274998       -0.0061095701
 C         -1.0492929215        3.2216245695       -1.0485084899
 C         -2.4192991215        3.0706632490       -1.1810541195
 C         -3.1343845410        2.2823473988       -0.2987640593
 C         -2.4627629905        1.6596705590        0.7470995605
 C         -1.1012412405        1.8503670695        0.9049972401
 H         -0.5949548801        1.3597463497        1.7246358000
 N         -3.1325960799        0.8105713388        1.6560065207
 S         -2.7219207494       -0.8151369711        1.5850444706
 O         -3.5566186988       -1.4584002214        2.5782374308
 O         -1.2997592693       -0.9714356006        1.7488652302
 C         -3.2481681396       -1.3271017113       -0.0418937093
 C         -2.4774248100       -0.9986957610       -1.1391174295
 C         -2.9429118003       -1.3351517212       -2.4018728594
 C         -4.1589482901       -1.9843915316       -2.5461432090
 C         -4.9202472896       -2.3064549219       -1.4323870488
 C         -4.4651438694       -1.9703193517       -0.1680509289
 H         -5.0204525191       -2.2005433119        0.7269617212
 H         -5.8650339795       -2.8134349422       -1.5451483386
 H         -4.5140544502       -2.2408957218       -3.5318518789
 H         -2.3456316806       -1.0802682510       -3.2626733995
 H         -1.5311573402       -0.4959875707       -1.0070640598
 H         -4.1401756000        0.8911956284        1.6152100509
 H         -4.1982177810        2.1412973384       -0.4182911790
 H         -2.9328083419        3.5568537688       -1.9963415994
 H         -0.5049611019        3.8060575497       -1.7717661701
 H          1.2859703391        3.2238984004        1.1669883295
 C          1.8381211384        3.5137323006       -0.8598528407
 C          3.2484232684        3.1965537311       -1.2568763611
 C          2.1271561082        2.9546430807       -2.2194985108
 H          2.0376615278        3.6095700706       -3.0738085108
 H          1.8233733186        1.9381785705       -2.4111166007
 H          3.9239496081        4.0179230313       -1.4438469113
 H          3.7197559789        2.3429330012       -0.7910212612
 H          1.5852023180        4.5681418205       -0.8078020706
