  62
        -98.94517856
 C         -2.2719692221       -0.7176690114       -0.0147898187
 C         -3.2783032458       -0.6668319556        0.9828530910
 C         -4.1609107673        0.5034527659        0.9475610807
 C         -3.9535635904        1.4667905793        0.0315794365
 C         -4.7508959142        2.7343152600       -0.1155466735
 C         -6.0385813650        2.5698820878       -0.9348521265
 C         -7.1651546109        1.8110547239       -0.2321574423
 H         -7.3425817255        2.2535752922        0.7484870512
 H         -8.0694889937        1.9602532291       -0.8254022449
 C         -6.9166475255        0.3036699590       -0.0821986549
 H         -7.8163668917       -0.2441930254       -0.3710690050
 H         -6.1216502019       -0.0039422533       -0.7654058293
 C         -6.5507805246       -0.1406833737        1.3339681995
 H         -6.3607577535       -1.2167677461        1.3168206365
 H         -7.3931038709        0.0421318564        2.0047026315
 C         -5.3084191477        0.5504875057        1.9109393544
 H         -5.5401291754        1.5816457164        2.1764852604
 H         -5.0056763699        0.0152278136        2.8141387229
 H         -6.3999981437        3.5720733127       -1.1766399328
 H         -5.7926811393        2.0701051185       -1.8747018051
 H         -4.9935470881        3.1312279797        0.8706211477
 H         -4.1043820221        3.4497366405       -0.6286004667
 O         -2.9500376980        1.4022598278       -0.8829950279
 C         -2.0973448206        0.3083594085       -0.9433677315
 O         -1.2512239797        0.3791422538       -1.8564407618
 O         -3.4302083854       -1.5580329738        1.8595179062
 C         -1.3395371944       -1.9182367796       -0.0267545151
 C          0.0354922278       -1.4501278687        0.3790091957
 C          0.3145929193       -1.2567046798        1.7294824396
 C          1.5416139483       -0.7657972324        2.1327152841
 C          2.5135513652       -0.4483968568        1.1990866956
 C          2.2377829462       -0.6197553503       -0.1500684118
 C          1.0117406642       -1.1344627800       -0.5521842582
 H          0.8076087191       -1.2506695857       -1.6046552309
 N          3.2121661782       -0.2930449695       -1.1081629788
 S          4.0455929013        1.1538270552       -0.9453995737
 O          3.2632202471        2.1567800943       -0.2602798446
 O          4.4912754219        1.4855840812       -2.2814613738
 C          5.4642272098        0.7068633194        0.0365809408
 C          6.2285832311       -0.3677528085       -0.3744276430
 C          7.3411212823       -0.7222866881        0.3715796480
 C          7.6717245814        0.0016378635        1.5075114772
 C          6.8969687831        1.0804247713        1.9048422477
 C          5.7816820064        1.4393017686        1.1635917858
 H          5.1463638119        2.2665903904        1.4380109468
 H          7.1552854583        1.6427437560        2.7877721845
 H          8.5382206781       -0.2762876036        2.0864865741
 H          7.9455819953       -1.5609951376        0.0658559806
 H          5.9395588790       -0.9022583158       -1.2637363194
 H          2.8951158974       -0.4162304409       -2.0592844197
 H          3.4681206442       -0.0530470939        1.5054520004
 H          1.7451491438       -0.6248947106        3.1833857973
 H         -0.4516386007       -1.4844852241        2.4573958609
 H         -1.7182736470       -2.5852910190        0.7593731885
 C         -1.3754265069       -2.6543111846       -1.3493416045
 C         -0.8052351673       -4.0377025777       -1.4341024371
 C         -2.2876930322       -3.8322392594       -1.5065964579
 H         -2.7838445627       -3.9751352659       -2.4549516453
 H         -2.8864720521       -4.1174085450       -0.6541045094
 H         -0.2813737496       -4.3259150690       -2.3326079083
 H         -0.3956103169       -4.4613759794       -0.5298278923
 H         -1.2603606269       -2.0031031323       -2.2074980443
