  62
        -98.93444750
 C         -2.2462559792       -0.7376563862       -0.1502003041
 C         -3.1278717940       -0.7502306191        0.9608599029
 C         -4.1545434727        0.3037448406        1.0152162805
 C         -4.1929025124        1.2223251049        0.0350501370
 C         -5.1817289626        2.3418981781       -0.1374390013
 C         -6.3463911307        1.9039262441       -1.0418099548
 C         -7.5028414153        1.2172008173       -0.3162301044
 H         -8.0418337496        1.9568531227        0.2794358857
 H         -8.1909235737        0.8471942507       -1.0798323190
 C         -7.1051717765        0.0520219656        0.5937085047
 H         -6.3578716226       -0.5667958523        0.0935637432
 H         -7.9892378627       -0.5699973184        0.7465654999
 C         -6.5753213929        0.5077414247        1.9615095573
 H         -7.1127027510       -0.0207535170        2.7515601914
 H         -6.7949493822        1.5669420805        2.0937983669
 C         -5.0793913445        0.2564141518        2.2007186083
 H         -4.7148880615        0.9613569049        2.9552863496
 H         -4.9404329996       -0.7455483253        2.6186851407
 H         -6.7427695533        2.7836682064       -1.5529352035
 H         -5.9428101861        1.2361853930       -1.8075129211
 H         -5.5411149524        2.6908585102        0.8260112656
 H         -4.6465011490        3.1563476841       -0.6301753215
 O         -3.3167737750        1.2127439072       -1.0057422117
 C         -2.3303699246        0.2462681486       -1.1352173251
 O         -1.6211586732        0.3949020042       -2.1493595100
 O         -3.0670192025       -1.6231913117        1.8676301415
 C         -1.2191233720       -1.8543460701       -0.2127349679
 C          0.1073206966       -1.4304466514        0.3623074723
 C          0.7553634036       -2.2052959465        1.3166995320
 C          1.9914503015       -1.8267644114        1.8116251295
 C          2.6079691794       -0.6735139341        1.3600496209
 C          1.9670149695        0.1083358541        0.4082077648
 C          0.7250222892       -0.2678506127       -0.0784119134
 H          0.2381386082        0.3395232489       -0.8279849389
 N          2.6073251054        1.2739566225       -0.0755306566
 S          3.9340336197        0.9508308834       -1.0674276848
 O          4.1346325448        2.1476215578       -1.8543806064
 O          3.7468909188       -0.2795387976       -1.8030451164
 C          5.2797374696        0.7708031517        0.0834689955
 C          5.6452672597        1.8697827242        0.8363921731
 C          6.6875410007        1.7434471781        1.7408234613
 C          7.3427378021        0.5280892261        1.8750853757
 C          6.9652284364       -0.5646450882        1.1095632782
 C          5.9232075496       -0.4452909846        0.2030548379
 H          5.5904905374       -1.2671241389       -0.4102920556
 H          7.4758645328       -1.5082376735        1.2154826668
 H          8.1528945660        0.4321808306        2.5805991629
 H          6.9847624657        2.5908583644        2.3373820716
 H          5.1117748506        2.7951003519        0.6961428377
 H          1.9714847516        1.8742690023       -0.5841632706
 H          3.5704911516       -0.3724545769        1.7400683099
 H          2.4813304142       -2.4369533400        2.5546500191
 H          0.2787298974       -3.1058651432        1.6753205224
 H         -1.6264040499       -2.6400985236        0.4430478456
 C         -1.0818371719       -2.4553925501       -1.6064712615
 C          0.1349115398       -2.3145781919       -2.4672893034
 C         -0.1815999066       -3.6338744017       -1.8328445363
 H         -0.5306115275       -4.4414383973       -2.4582158702
 H          0.4405291688       -3.9476095145       -1.0082225029
 H         -0.0195120428       -2.1961037783       -3.5294527502
 H          0.9803310502       -1.7545176318       -2.0966512316
 H         -2.0317771375       -2.4653050193       -2.1324297729
