  62
        -98.94039609
 C         -2.0675125050       -1.0227020188        0.1167471095
 C         -2.3543455636        0.3651568722        0.1545594931
 C         -3.7128785570        0.7220299724        0.5926921127
 C         -4.5749420902       -0.2362386407        0.9736712081
 C         -5.9829467058       -0.0238573907        1.4594167721
 C         -7.0165713994        0.1149229281        0.3333359518
 C         -6.9641426998        1.4335664001       -0.4393980469
 H         -7.8716267385        1.4864302140       -1.0442140227
 H         -6.9928464257        2.2667985203        0.2635192331
 C         -5.7469007398        1.5790467386       -1.3633575579
 H         -5.2979456997        0.5973521367       -1.5314992553
 H         -6.0714634269        1.9526211374       -2.3371923504
 C         -4.6704097622        2.5344374878       -0.8478098189
 H         -5.0730959787        3.5486542034       -0.7999894369
 H         -3.8424063258        2.5362762205       -1.5616035597
 C         -4.1070268007        2.1669661821        0.5313704261
 H         -3.2082440022        2.7638864868        0.7059247216
 H         -4.8355798593        2.3968413313        1.3085878736
 H         -6.8914445200       -0.7194287920       -0.3608266343
 H         -8.0063204197        0.0236711795        0.7866199203
 H         -6.2407459468       -0.9005884720        2.0575130602
 H         -6.0206482011        0.8571650354        2.1007779659
 O         -4.2412405333       -1.5541447120        0.9797946300
 C         -2.9961262236       -1.9767637577        0.5445418088
 O         -2.8341218500       -3.2125157046        0.5942504395
 H          0.9680279151        0.3618326802       -1.3400570849
 C          1.1671591491        0.1331612435       -0.3047987052
 C          0.3932970566       -0.8102575922        0.3520232587
 C          0.6482146446       -1.0630425506        1.6964223875
 C          1.6454494286       -0.3807989608        2.3679790686
 C          2.4077538880        0.5700071314        1.7130325020
 C          2.1584962439        0.8315202058        0.3723070848
 N          2.9223959638        1.8025828776       -0.2956836034
 S          4.5810194088        1.7860780261       -0.1025632202
 O          4.9342408452        2.3697757371        1.1675055190
 O          5.1065717918        2.4522495991       -1.2733620905
 C          5.0213616387        0.0571108684       -0.1186265491
 C          5.5024981561       -0.5473751347        1.0243875133
 C          5.7904281603       -1.9028166334        0.9951059814
 C          5.5891465529       -2.6267613843       -0.1694530839
 C          5.1080841264       -2.0041205723       -1.3113931251
 C          4.8189156735       -0.6498235070       -1.2877014377
 H          4.4518348179       -0.1315898905       -2.1590203064
 H          4.9555070037       -2.5694137840       -2.2168144553
 H          5.8097434944       -3.6823993014       -0.1892321722
 H          6.1669398270       -2.3892806675        1.8804965806
 H          5.6455607416        0.0519031607        1.9085713122
 H          2.6560774737        1.9459619617       -1.2580422982
 H          3.1770219069        1.1259976791        2.2239444489
 H          1.8282086158       -0.5857593159        3.4119383187
 H          0.0443022872       -1.7972014733        2.2123804563
 C         -0.7194033920       -1.5620778157       -0.3338494496
 H         -0.6971151248       -2.6012754940        0.0312682717
 C         -0.5473722933       -1.6322238967       -1.8444672800
 C         -1.6973612379       -2.0267105647       -2.7212725551
 C         -1.1508494997       -0.6335542979       -2.7838070727
 H         -0.5839554050       -0.3466169257       -3.6579252512
 H         -1.7344138301        0.1694399288       -2.3623936725
 H         -2.6547402833       -2.1808710245       -2.2446179613
 H         -1.5105414674       -2.6934188950       -3.5495239261
 H          0.4250081415       -2.0307880958       -2.1180246269
 O         -1.5415312814        1.2713776213       -0.1599969058
