  62
        -98.94454980
 C         -2.6151894340       -1.2252940130        0.1403206875
 C         -2.6404876655       -0.2815439438       -0.9149146088
 C         -3.4386484193        0.9307116355       -0.6758675996
 C         -4.0919908949        1.0799292043        0.4899069987
 C         -4.8857674042        2.2905474108        0.8844138887
 C         -4.0129795885        3.3069409255        1.6338947556
 C         -2.6905486347        3.6245151390        0.9349677211
 H         -2.1775695571        4.3788522532        1.5357703858
 H         -2.0565163289        2.7339967747        0.9377423414
 C         -2.8387295225        4.1349765157       -0.5051334989
 H         -3.8576656274        4.4869713482       -0.6711201952
 H         -2.1723330079        4.9891546393       -0.6427191908
 C         -2.4744551181        3.1111664033       -1.5820628114
 H         -1.4895326109        2.6875578490       -1.3638200594
 H         -2.3972695301        3.6367367979       -2.5379522014
 C         -3.4708039700        1.9597737833       -1.7707559120
 H         -4.4781496835        2.3625847549       -1.8927919335
 H         -3.1977378082        1.4316838962       -2.6890167403
 H         -4.5869511400        4.2264478643        1.7617773808
 H         -3.7865853394        2.9059760359        2.6244528655
 H         -5.3097561736        2.7477085185       -0.0073798642
 H         -5.6974470235        1.9702497927        1.5396861044
 O         -4.0619703920        0.1459396933        1.4731788869
 C         -3.3163813355       -1.0102148448        1.3321238925
 O         -3.3632371006       -1.7693439584        2.3202552513
 H         -0.0392568789       -1.2077291436       -1.5021508568
 C          0.4085093321       -1.5031207479       -0.5650110660
 C         -0.3535454495       -2.1956372578        0.3653458927
 C          0.2289151692       -2.5323073955        1.5819492728
 C          1.5394541094       -2.1826871399        1.8566525904
 C          2.2916441097       -1.4829539532        0.9298091854
 C          1.7144875202       -1.1330157744       -0.2834681985
 N          2.4624216464       -0.3897507781       -1.2205893982
 S          3.0055923242        1.1105514582       -0.6841357515
 O          2.1471066971        1.6455262992        0.3487524869
 O          3.1599581198        1.9163808979       -1.8757824956
 C          4.6172397542        0.7525592644       -0.0168189218
 C          4.9057865935        1.0636270035        1.2973364719
 C          6.1689057635        0.7767114307        1.7917320574
 C          7.1154340634        0.1880017958        0.9672166755
 C          6.8103302860       -0.1159144532       -0.3513876278
 C          5.5500347117        0.1689287076       -0.8518886445
 H          5.2720292864       -0.0472418392       -1.8698570232
 H          7.5492296564       -0.5735347774       -0.9892177524
 H          8.0968350573       -0.0352245769        1.3548657928
 H          6.4077431081        1.0123539095        2.8164155371
 H          4.1351731109        1.5148067737        1.9020028801
 H          1.9749453759       -0.2754281274       -2.0991871848
 H          3.3091882435       -1.1972985951        1.1419030963
 H          1.9779541790       -2.4518448358        2.8055089548
 H         -0.3631006131       -3.0518683413        2.3216867510
 C         -1.8038459363       -2.5133088442        0.0891271230
 H         -2.1760000050       -3.1294598526        0.9181279643
 C         -1.9863613760       -3.2868818563       -1.2012079366
 C         -1.6299977091       -4.7417511344       -1.2284787672
 C         -3.0670210322       -4.3205227684       -1.2862074212
 H         -3.6021161631       -4.4295639686       -2.2175812466
 H         -3.6805714998       -4.4752970665       -0.4104550280
 H         -1.1757477923       -5.1437016585       -2.1209837950
 H         -1.2689566009       -5.1843967734       -0.3124875612
 H         -1.7919794532       -2.7024889436       -2.0903767837
 O         -2.0383117142       -0.4187083743       -2.0146413947
