  62
        -98.94343304
 C         -2.5024630865       -1.1397556677        0.0112838619
 C         -3.4498915311       -0.5874349019        0.9153753578
 C         -4.4020629764        0.3765021666        0.3564416445
 C         -4.3593201731        0.6673642769       -0.9559992919
 C         -5.2781187004        1.6077318577       -1.6873596788
 C         -4.8626155283        3.0825493670       -1.5970375647
 C         -5.0885011227        3.7396094075       -0.2347511714
 H         -4.9636730076        4.8153163756       -0.3737544116
 H         -6.1178129147        3.5699705055        0.0826305043
 C         -4.1243997942        3.2689554065        0.8633426000
 H         -3.2635565361        2.7751228087        0.4063255345
 H         -3.7427960055        4.1351263244        1.4084902649
 C         -4.7466816526        2.3250809339        1.8924483263
 H         -5.5226544746        2.8525157672        2.4515604593
 H         -3.9670062608        2.0258461191        2.5974903820
 C         -5.3574525145        1.0514120582        1.2934827213
 H         -5.5699111211        0.3560899065        2.1091495902
 H         -6.2903661320        1.2858800838        0.7812512223
 H         -3.8085052841        3.1658976456       -1.8717417361
 H         -5.4443051926        3.6305446138       -2.3418961308
 H         -5.2584322976        1.3077493618       -2.7373535138
 H         -6.2951474858        1.4913638883       -1.3118357709
 O         -3.4547945196        0.1012056167       -1.7955437032
 C         -2.4949586054       -0.7915796301       -1.3392083625
 O         -1.7251234911       -1.1839414349       -2.2408627217
 O         -3.5008870511       -0.8968828696        2.1350382293
 C         -1.5114796127       -2.1324049972        0.5959392499
 C         -0.1684260771       -1.4938389145        0.8617196420
 C          0.3357363541       -1.4091627281        2.1542938649
 C          1.5744510058       -0.8393517609        2.3914111365
 C          2.3317297559       -0.3375788709        1.3482234952
 C          1.8357754876       -0.4143022585        0.0531414098
 C          0.5979749446       -0.9958920930       -0.1824810950
 H          0.2155033506       -1.0495741703       -1.1912271186
 N          2.5804203573        0.1196636007       -1.0127537493
 S          4.1935594937       -0.3171375142       -1.1598360329
 O          4.5162894660       -0.1187765483       -2.5559204688
 O          4.4374423652       -1.6372596565       -0.6256736427
 C          5.0559213980        0.9012823644       -0.1885972156
 C          5.9448720432        0.4992540033        0.7890077957
 C          6.6156642888        1.4651845295        1.5231205773
 C          6.3875911651        2.8085098603        1.2671019619
 C          5.4929975979        3.1957469456        0.2802857845
 C          4.8202456737        2.2352865176       -0.4580057331
 H          4.1191317916        2.4939259836       -1.2340895261
 H          5.3175999883        4.2413741212        0.0845106502
 H          6.9097756618        3.5585539960        1.8398670302
 H          7.3114082711        1.1661931140        2.2905524450
 H          6.0851050807       -0.5566481197        0.9568918235
 H          2.1077537022        0.0520741214       -1.9028723277
 H          3.2959185144        0.1096502128        1.5269086786
 H          1.9535841140       -0.7815591769        3.4002479389
 H         -0.2557721597       -1.7851807566        2.9762846244
 H         -1.9395950671       -2.4205315739        1.5655777859
 C         -1.3501850893       -3.3847431424       -0.2441722513
 C         -0.8472089671       -4.6366202885        0.4069858992
 C         -2.2787596379       -4.5397215413       -0.0262648260
 H         -2.6006562190       -5.1099477778       -0.8847112514
 H         -3.0363768180       -4.4342316592        0.7365626081
 H         -0.1806630409       -5.2751615951       -0.1522994831
 H         -0.6343849159       -4.5990967978        1.4645838334
 H         -1.0369706466       -3.1857283254       -1.2609878037
