  62
        -98.94848824
 C          2.3486069187        0.6499332229        0.1717613509
 C          1.5435252796        0.0339571723       -0.8159070395
 C          1.7071111210       -1.4188198376       -0.9702249195
 C          2.5724515513       -2.0744551068       -0.1773525092
 C          2.8405547226       -3.5504391966       -0.2277232592
 C          1.9427581830       -4.3269393975        0.7438405304
 C          0.4582012527       -3.9784185288        0.6330052298
 H         -0.0805485770       -4.6319297093        1.3236077196
 H          0.2951046716       -2.9546210190        0.9791161799
 C         -0.1293478166       -4.1308901092       -0.7769161404
 H          0.5142523742       -4.7703393086       -1.3830734002
 H         -1.0991344562       -4.6266225101       -0.6958626508
 C         -0.3675927176       -2.8036830894       -1.4996274304
 H         -0.8882578884       -2.1220173599       -0.8224350905
 H         -1.0255953471       -2.9903742799       -2.3528606406
 C          0.8866420720       -2.0972626582       -2.0310309399
 H          1.4966628028       -2.8051284676       -2.5969422897
 H          0.5598979215       -1.3045499885       -2.7103471899
 H          2.0816707840       -5.3944758873        0.5600906204
 H          2.2678356524       -4.1127772973        1.7647563405
 H          2.6832572433       -3.9053846667       -1.2446161393
 H          3.8839456627       -3.7162654057        0.0478469412
 O          3.3004341004       -1.4576863762        0.7893946811
 C          3.1842663490       -0.0947320364        1.0063515812
 O          3.8725131683        0.3331290642        1.9559993614
 O          0.7363201393        0.6597828416       -1.5517751097
 C          2.2629119572        2.1423235928        0.4485068710
 C          0.8160459168        2.5722539415        0.4474022905
 C          0.3138000862        3.6272917811       -0.3031730397
 C         -1.0348746141        3.9380493099       -0.2613003201
 C         -1.9120610037        3.1898367891        0.5017091095
 C         -1.4180051531        2.1313631295        1.2556169196
 C         -0.0617455628        1.8554723007        1.2521002601
 H          0.3087655777        1.0314921210        1.8455296502
 N         -2.2702761226        1.3062331386        2.0212696692
 S         -2.3909450910       -0.2952836014        1.5354722190
 O         -3.3045861008       -0.9076925023        2.4768780287
 O         -1.0788194704       -0.8804255103        1.4492009495
 C         -3.1731974904       -0.2157684720       -0.0670305712
 C         -2.4460776204        0.2086267787       -1.1615194409
 C         -3.0934455701        0.3241481682       -2.3829437912
 C         -4.4413211797        0.0199459270       -2.4897531617
 C         -5.1559987198       -0.4042207637       -1.3793414220
 C         -4.5188710801       -0.5185235832       -0.1548815818
 H         -5.0308735002       -0.8448904238        0.7360182880
 H         -6.2039533095       -0.6433351447       -1.4629533324
 H         -4.9363617595        0.1130839466       -3.4435872619
 H         -2.5305503800        0.6544538688       -3.2411580609
 H         -1.3947535807        0.4347713596       -1.0665515305
 H         -3.2021103430        1.6823847478        2.1353963189
 H         -2.9685904839        3.4126906981        0.5100391391
 H         -1.4108911346        4.7605366196       -0.8504083502
 H          0.9721659259        4.1937421518       -0.9408919694
 H          2.6474633167        2.2630135631        1.4755126111
 C          3.1481410768        2.9927096237       -0.4513252286
 C          4.3745837076        2.4204726749       -1.0955996582
 C          3.1929520675        2.7957585439       -1.9357824686
 H          3.2724379170        3.6683832040       -2.5673646585
 H          2.5850886884        2.0073932233       -2.3500195889
 H          5.2603344970        3.0361422057       -1.1437526378
 H          4.5816415884        1.3717780750       -0.9372919182
 H          3.2334022757        4.0127231938       -0.0895295085
