  62
        -98.93859569
 C          1.9040783418       -0.9347093638       -0.0090480780
 C          2.3891024660        0.3922442482       -0.0489513517
 C          3.8182820546        0.5593212113       -0.3763079275
 C          4.5768428984       -0.5281992881       -0.6083109173
 C          6.0362217501       -0.6662057424       -0.9901821808
 C          6.9872733331        0.5231136472       -0.8876760867
 C          7.2833423518        0.9830534766        0.5396373970
 H          7.8898801038        0.2184253189        1.0315312319
 H          7.8788109283        1.8971610790        0.4882109638
 C          6.0610980366        1.2350867996        1.4189763478
 H          5.5050100941        0.3046813285        1.5506757947
 H          6.4169561580        1.5394684079        2.4071093488
 C          5.1060046921        2.3161023749        0.9170678207
 H          5.6551750599        3.2453345029        0.7526643294
 H          4.3703247547        2.4981749147        1.7053968422
 C          4.3312915753        1.9705601466       -0.3660689984
 H          3.4486753691        2.6157060163       -0.4112043385
 H          4.9268507903        2.1706862359       -1.2535253159
 H          6.6211092057        1.3508241275       -1.4877970980
 H          7.9334684558        0.2040149128       -1.3331523740
 H          6.0382223840       -1.0225635293       -2.0261891055
 H          6.4260647336       -1.4888287623       -0.3821750498
 O          4.0565265646       -1.7906925706       -0.5679036939
 C          2.7276840292       -2.0280618684       -0.2688544604
 O          2.4059781714       -3.2334251058       -0.2699192734
 O          1.6672186074        1.3996720295        0.1712959703
 C          0.4503473265       -1.2081008718        0.3358503149
 C         -0.4489856848       -0.4782512340       -0.6312240195
 C         -0.2817690534       -0.7114161794       -1.9947774404
 C         -1.0587919957       -0.0511444444       -2.9254175642
 C         -2.0278970313        0.8488702273       -2.5164758302
 C         -2.2069475015        1.0857870099       -1.1595356017
 C         -1.4254244324        0.4166209075       -0.2254551337
 H         -1.5743519500        0.6364027425        0.8176948554
 N         -3.1670430382        2.0119337169       -0.7234422908
 S         -4.1614004126        1.6837484435        0.5771254784
 O         -5.2128584887        2.6722764121        0.4833563853
 O         -3.4059364319        1.6704404498        1.8029302795
 C         -4.8223647306        0.0637059158        0.2331346270
 C         -4.2393018851       -1.0500330455        0.8018266979
 C         -4.7283462092       -2.3037918065        0.4696023522
 C         -5.7844148728       -2.4214527841       -0.4204592529
 C         -6.3622436751       -1.2918232986       -0.9803261927
 C         -5.8756510472       -0.0364148240       -0.6552987766
 H         -6.3036092410        0.8669779998       -1.0587083465
 H         -7.1869445260       -1.3867373412       -1.6682007287
 H         -6.1605955886       -3.3994095699       -0.6763410782
 H         -4.2816642754       -3.1828898191        0.9062545027
 H         -3.4233758364       -0.9196438553        1.4930212021
 H         -3.6830899531        2.4596143978       -1.4663998133
 H         -2.6298239247        1.3743753533       -3.2422040269
 H         -0.9113361350       -0.2373011140       -3.9785781523
 H          0.4796440174       -1.4111796718       -2.3124552413
 H          0.3054005202       -2.2886027021        0.1909319451
 C          0.1908848954       -0.8745236447        1.7896571572
 C         -0.8622731596       -1.6147177692        2.5558806888
 C          0.5876596973       -1.8645541275        2.8416597323
 H          1.0053126203       -1.4950942882        3.7662393734
 H          1.0228176052       -2.7951379073        2.5066319189
 H         -1.4451403998       -1.0724082360        3.2860768056
 H         -1.4070676223       -2.3867727804        2.0334259005
 H          0.3440783049        0.1749421427        2.0151041879
