  62
        -98.93613966
 C         -2.4919671498       -0.9494723749        0.5862313253
 C         -2.8334919268        0.2940072298        1.1787133676
 C         -4.2123144887        0.7531525542        0.9849455269
 C         -5.0769874025       -0.0144975029        0.2977629944
 C         -6.5220090220        0.3035741295        0.0245035291
 C         -6.7390279261        1.2150252026       -1.1912885110
 C         -6.3379491663        2.6768189146       -0.9890793852
 H         -6.8096325181        3.0599567924       -0.0837181531
 H         -6.7443325177        3.2397480708       -1.8316833983
 C         -4.8228604202        2.9155545188       -0.9225005943
 H         -4.5603148962        3.7695513198       -1.5509479357
 H         -4.2973810152        2.0475979229       -1.3277898459
 C         -4.2871161880        3.2048539837        0.4798615211
 H         -4.7033293074        4.1464181606        0.8450932161
 H         -3.2016872915        3.3180515710        0.4155029625
 C         -4.5866404596        2.1066736535        1.5085636740
 H         -5.6398152369        2.1288333826        1.7880232514
 H         -3.9825790785        2.2965334562        2.3992781155
 H         -7.8032435001        1.1833605364       -1.4358245178
 H         -6.1901540623        0.8008872856       -2.0400975038
 H         -6.9701975933        0.7593937330        0.9077466336
 H         -7.0193495287       -0.6497114390       -0.1663650505
 O         -4.7232336134       -1.2147977790       -0.2286548223
 C         -3.4240879441       -1.7042061951       -0.1278896000
 O         -3.2612352290       -2.7945161422       -0.7038984314
 O         -2.0195064666        0.9863030857        1.8485246758
 C         -1.0560206940       -1.4073714152        0.7614087440
 C         -0.1835231468       -0.9267306931       -0.3700614319
 C         -0.5637779371       -1.0839262148       -1.6994959723
 C          0.2652925575       -0.6544247161       -2.7195935816
 C          1.4910147566       -0.0774641451       -2.4371661620
 C          1.8760567119        0.0919284999       -1.1124443692
 C          1.0335166031       -0.3240123265       -0.0904954184
 H          1.3397680852       -0.1725098606        0.9341416123
 N          3.1032251126        0.6910221746       -0.7895954092
 S          3.9295099709        0.1112137876        0.5658077335
 O          3.8662265665       -1.3322866329        0.5975258174
 O          3.4429523427        0.7970356768        1.7362402672
 C          5.5859818717        0.6554806455        0.1950162241
 C          6.4813042589       -0.2309597680       -0.3730455783
 C          7.7569059865        0.2130034508       -0.6848173079
 C          8.1120188275        1.5286739159       -0.4277800612
 C          7.2024047127        2.4064085405        0.1436233317
 C          5.9260052884        1.9689785745        0.4594077173
 H          5.1888430499        2.6109576412        0.9130473778
 H          7.4830456601        3.4277016457        0.3446568236
 H          9.1050229952        1.8718006152       -0.6715958943
 H          8.4674856432       -0.4676072210       -1.1253931230
 H          6.1633028116       -1.2463674054       -0.5471442786
 H          3.7129136404        0.7984240400       -1.5887553813
 H          2.1411171113        0.2461528030       -3.2357663812
 H         -0.0408420731       -0.7832638952       -3.7469655461
 H         -1.5089940654       -1.5560058724       -1.9222334697
 H         -0.7083664771       -0.8976676937        1.6753784289
 C         -0.9151487655       -2.9035899432        1.0044872138
 C         -0.3510788550       -3.8581688488        0.0000569306
 C          0.4430048493       -3.5047902315        1.2196947771
 H          0.5606124464       -4.2470924891        1.9949444027
 H          1.3045099044       -2.8638023781        1.0928047509
 H         -0.8014148833       -4.8366922611       -0.0655190848
 H         -0.0261952203       -3.4658130487       -0.9504585615
 H         -1.7178763833       -3.2858495917        1.6275899165
