  62
        -98.94310139
 C         -1.1599790589       -1.2626170625       -0.0652230140
 C         -1.9212761559       -0.6732208293        0.9784300465
 C         -2.8172250860        0.4252867968        0.5966577251
 C         -2.8392212794        0.8364585342       -0.6834840350
 C         -3.7459986221        1.9011005070       -1.2283732177
 C         -5.0591807366        1.2975539135       -1.7469889839
 C         -5.7292232046        0.3356800062       -0.7656619385
 H         -6.6586135349       -0.0040514255       -1.2279993136
 H         -5.0944764925       -0.5443151725       -0.6383713459
 C         -6.0352420909        0.9422553050        0.6109441743
 H         -6.0143181123        2.0309064927        0.5487475337
 H         -7.0475719086        0.6545488161        0.9024457515
 C         -5.1006935913        0.4797856521        1.7305171337
 H         -5.0480787691       -0.6117928714        1.7364655194
 H         -5.5341230397        0.7910541998        2.6846504073
 C         -3.6708577878        1.0325404201        1.6741807170
 H         -3.7068066426        2.1194792892        1.5756095941
 H         -3.1816446678        0.7840117034        2.6203247360
 H         -5.7444136727        2.1133317984       -1.9845660511
 H         -4.8488137318        0.7519511259       -2.6699024903
 H         -3.9539106752        2.6311020559       -0.4484549784
 H         -3.2389293460        2.3995086952       -2.0564730101
 O         -2.0585541251        0.2867679502       -1.6453828224
 C         -1.2125862770       -0.7808149378       -1.3733863614
 O         -0.5824711770       -1.1779089047       -2.3723159650
 H          1.3529867917       -1.0391577548       -1.2983437225
 C          1.8244998772       -1.2641173357       -0.3530053816
 C          1.1271190378       -1.9999066741        0.5958171549
 C          1.7487029691       -2.2767445365        1.8072568842
 C          3.0347780929       -1.8295176380        2.0601558230
 C          3.7240437845       -1.0922327647        1.1135940926
 C          3.1086580571       -0.8098997629       -0.0983915135
 N          3.7830478172       -0.0096064692       -1.0531060511
 S          3.9423207446        1.5883279085       -0.5652149891
 O          4.1837892348        2.3521847449       -1.7676413254
 O          4.9614012537        1.6605482633        0.4503120088
 C          2.3538342850        1.9972094607        0.1369896874
 C          1.3313040160        2.3679507274       -0.7128468085
 C          0.0743679139        2.6092273385       -0.1836000644
 C         -0.1415947369        2.4579186217        1.1772073375
 C          0.8938090246        2.0787711255        2.0165174957
 C          2.1557503494        1.8464303103        1.4946781313
 H          2.9879824293        1.5561477379        2.1145851733
 H          0.7172293432        1.9561894925        3.0728145150
 H         -1.1241064972        2.6318308690        1.5857664067
 H         -0.7345823967        2.9024793878       -0.8335667796
 H          1.5348442856        2.4718854563       -1.7670711344
 H          3.3263981904       -0.0285567078       -1.9555076467
 H          4.7159135955       -0.7132201294        1.2994242718
 H          3.5033761739       -2.0518746217        3.0065538252
 H          1.2105042480       -2.8321480376        2.5611145000
 C         -0.2853340987       -2.4446333120        0.3200312030
 H         -0.7089937973       -2.8013657254        1.2718211846
 C         -0.3712264821       -3.5962752690       -0.6734631477
 C          0.7722612085       -4.0540368520       -1.5238697994
 C          0.3167926550       -4.8949846881       -0.3716940711
 H         -0.2040489564       -5.8184930592       -0.5740583527
 H          0.9517160915       -4.9266759403        0.5009781520
 H          0.5474473230       -4.3788410793       -2.5285030675
 H          1.7172517326       -3.5414239177       -1.4374528868
 H         -1.3554241482       -3.6644502272       -1.1265230509
 O         -1.8626307713       -1.0620550997        2.1742913644
