  62
        -98.94774049
 C         -1.0575111398       -0.9058700005        0.7148303508
 C         -1.7652218499       -0.8323189808       -0.5085438892
 C         -2.4346324598        0.4452739192       -0.7807569596
 C         -2.2788339196        1.4771213495        0.0670859501
 C         -2.8573568894        2.8564931595       -0.0995111003
 C         -4.3081992194        2.9920139098        0.3833818298
 C         -5.3569842795        2.3238032297       -0.5063050199
 H         -6.3335804095        2.6810546199       -0.1736326999
 H         -5.2220663796        2.6559453093       -1.5361648600
 C         -5.3478397397        0.7897953797       -0.4528690294
 H         -4.7967492197        0.4593638099        0.4304008907
 H         -6.3712882998        0.4226816398       -0.3491485691
 C         -4.7481777199        0.1172012792       -1.6877795992
 H         -4.7566018001       -0.9640027008       -1.5284487988
 H         -5.3674647100        0.3337538290       -2.5610945792
 C         -3.3051929199        0.5380451789       -1.9967872695
 H         -3.2840148198        1.5492189788       -2.4039320198
 H         -2.8967618701       -0.1450424514       -2.7460291593
 H         -4.3777228293        2.5867530102        1.3953653199
 H         -4.5344815292        4.0595195399        0.4354952494
 H         -2.2336385593        3.5298340096        0.4930309694
 H         -2.7875517695        3.1553207091       -1.1462403604
 O         -1.5317998895        1.3876269898        1.1999693200
 C         -0.9166540396        0.1963309098        1.5561777904
 O         -0.2768518195        0.2496252201        2.6261943403
 O         -1.8401227401       -1.7823488711       -1.3314801389
 C         -0.3069971699       -2.1742448804        1.0848371511
 C          0.7566637199       -2.4141604609        0.0402013611
 C          0.9538036097       -3.6231102112       -0.6121081385
 C          1.9177071996       -3.7306214116       -1.6007644186
 C          2.6870167397       -2.6417284618       -1.9670236790
 C          2.5074859499       -1.4307089816       -1.3065412194
 C          1.5692062900       -1.3376846911       -0.2939075394
 H          1.4317136202       -0.3975522809        0.2198784603
 N          3.2740728800       -0.3027270618       -1.6317741699
 S          2.6297194102        1.2314760883       -1.4593719304
 O          1.2186320502        1.2740913784       -1.7674379502
 O          3.4799679402        2.0634993879       -2.2869639407
 C          2.9194932505        1.6389600689        0.2482132495
 C          1.9263778606        2.2638240792        0.9744678494
 C          2.1667841208        2.5913156397        2.2990380992
 C          3.3942561808        2.2931949497        2.8691542592
 C          4.3860445207        1.6734014193        2.1237202893
 C          4.1505843005        1.3425434089        0.7993633494
 H          4.8942320004        0.8573738586        0.1895666095
 H          5.3389628607        1.4435078894        2.5726794393
 H          3.5753074109        2.5434908100        3.9025568391
 H          1.3882767709        3.0599096300        2.8791431492
 H          0.9772280206        2.4616976892        0.4998153994
 H          3.8479093299       -0.3908696222       -2.4574334799
 H          3.4163012796       -2.7216894622       -2.7585922291
 H          2.0579551694       -4.6731028818       -2.1080905083
 H          0.3442773096       -4.4752907210       -0.3603857482
 H          0.1929963302       -1.9643639502        2.0417004110
 C         -1.2584296501       -3.3359854303        1.2708376716
 C         -0.8911169701       -4.4692233500        2.1798239119
 C         -1.9554471599       -3.4964296297        2.5873238017
 H         -2.9839562500       -3.8247633996        2.5893982619
 H         -1.7252367798       -2.7779030795        3.3607134515
 H         -1.1912305503       -5.4691031100        1.9051185523
 H          0.0619551599       -4.4163124199        2.6837862218
 H         -1.8251010402       -3.5582988605        0.3742223817
