  62
        -98.93945878
 C         -2.4773495305       -1.0540382610        0.3755350012
 C         -2.5109439406        0.1422784892        1.1402831409
 C         -3.6755918706        1.0147862391        0.9453854306
 C         -4.6427997705        0.6339514889        0.0914344307
 C         -5.8662608605        1.4380274987       -0.2384124396
 C         -5.6242798805        2.3467418584       -1.4515158498
 C         -4.3370536105        3.1664175585       -1.3611199300
 H         -3.4790595705        2.4905197585       -1.3943212798
 H         -4.2862722305        3.7928513482       -2.2542800701
 C         -4.2345930306        4.0506959288       -0.1104999102
 H         -3.8791325206        5.0392611287       -0.4085358505
 H         -5.2221472306        4.1812144189        0.3333568297
 C         -3.2663147406        3.5335319091        0.9554814700
 H         -3.1045582507        4.3323385993        1.6844333198
 H         -2.2985275106        3.3102565590        0.4977735501
 C         -3.7283643006        2.2939676693        1.7322271603
 H         -4.7320966106        2.4612666994        2.1286735502
 H         -3.0440607107        2.1558337796        2.5746519004
 H         -6.4784576905        3.0181095984       -1.5556921600
 H         -5.5700277504        1.7226267482       -2.3462881997
 H         -6.6785322405        0.7469563687       -0.4693209794
 H         -6.1448343406        2.0356025890        0.6273423602
 O         -4.5889793105       -0.5247878813       -0.6083141290
 C         -3.5088053704       -1.3901755713       -0.5022686687
 O         -3.6134453504       -2.3962325615       -1.2302961885
 O         -1.6084902406        0.4602221794        1.9628514409
 C         -1.2693463205       -1.9537452409        0.5743457115
 C         -0.2455516004       -1.7689747412       -0.5211292285
 C         -0.5245290304       -2.0994105916       -1.8433817584
 C          0.4361543397       -1.9261989018       -2.8226213884
 C          1.6868087497       -1.4265024317       -2.5057657285
 C          1.9793994896       -1.1016285913       -1.1858981585
 C          1.0118094595       -1.2734223511       -0.2055386185
 H          1.2417370895       -0.9983162208        0.8129189814
 N          3.2624425096       -0.6449072012       -0.8381331786
 S          3.4536151795        0.4656655891        0.4179500311
 O          3.2847878894       -0.2182562206        1.6749058513
 O          2.6201230995        1.6256070790        0.1910123408
 C          5.1734825395        0.8806085491        0.1948580311
 C          6.1259949595       -0.0250911308        0.6230508214
 C          7.4659927895        0.2712389392        0.4324105714
 C          7.8299285595        1.4618456090       -0.1794153189
 C          6.8632421795        2.3619962589       -0.6012709592
 C          5.5206481195        2.0707008189       -0.4152784592
 H          4.7347289895        2.7430468388       -0.7200522994
 H          7.1491745295        3.2882006388       -1.0731609895
 H          8.8737031195        1.6908388990       -0.3255764790
 H          8.2203465195       -0.4250153607        0.7615495816
 H          5.7957933395       -0.9320382007        1.1018579116
 H          3.8064466296       -0.3709988114       -1.6455785487
 H          2.4337992197       -1.2924406619       -3.2734925685
 H          0.2065971697       -2.1798463721       -3.8466635083
 H         -1.5032819103       -2.4771501517       -2.0953778083
 H         -0.8099561805       -1.6085409007        1.5113743315
 C         -1.6228703205       -3.4205444909        0.7295599419
 C         -0.6389428705       -4.3316086807        1.3974831322
 C         -1.9137591405       -3.9638433406        2.0945192320
 H         -2.6836683005       -4.7137651505        2.1962682522
 H         -1.8598797406       -3.2772080403        2.9271857018
 H         -0.5301757904       -5.3369245308        1.0208756825
 H          0.2802149695       -3.8935138206        1.7577183421
 H         -2.1985280904       -3.8156890311       -0.0968546480
