  62
        -98.93411834
 C         -2.1291347105       -1.0936215392       -0.4351123697
 C         -3.3086221804       -0.7893489687        0.2880791402
 C         -4.0038342501        0.4701354613       -0.0365127102
 C         -3.4791918199        1.2667039910       -0.9858103003
 C         -3.9738383196        2.6070826710       -1.4631066307
 C         -3.6750960994        3.7403147511       -0.4699440409
 C         -3.9946610495        3.4163616516        0.9867844291
 H         -3.4118203997        2.5461059015        1.2944289594
 H         -3.6596950694        4.2610326716        1.5946358789
 C         -5.4716220696        3.1764502120        1.2914640491
 H         -5.5646736697        3.0751020523        2.3756457591
 H         -6.0468873494        4.0542526920        0.9894357089
 C         -6.0957077399        1.9364937519        0.6464104794
 H         -6.3423457898        2.1146108517       -0.3968194807
 H         -7.0417533099        1.7437513423        1.1604355794
 C         -5.2610569701        0.6667064218        0.7766170097
 H         -5.8963816003       -0.1955785881        0.5417214199
 H         -4.9707776102        0.5313086820        1.8246243198
 H         -4.2333873492        4.6253290112       -0.7803790312
 H         -2.6088887894        3.9726439009       -0.5339868210
 H         -3.4491944495        2.8170482406       -2.3979537407
 H         -5.0361974196        2.5570517611       -1.6831002307
 O         -2.3370462200        0.9382946306       -1.6548385702
 C         -1.6351040702       -0.2307126495       -1.4133739799
 O         -0.6329178302       -0.3693237499       -2.1414422498
 O         -3.7785164906       -1.5490711684        1.1785492603
 C         -1.4243010608       -2.3925688492       -0.0795068093
 C         -0.2896765407       -2.1117757293        0.8772558006
 C         -0.4428696109       -2.3940398389        2.2309041107
 C          0.5748016592       -2.1245581589        3.1275031207
 C          1.7620071393       -1.5674670193        2.6902534606
 C          1.9260958894       -1.2804412296        1.3387533405
 C          0.9040129494       -1.5526060896        0.4403448406
 H          1.0354476495       -1.2944265499       -0.5988493895
 N          3.1408230796       -0.7473624800        0.8757560605
 S          3.1225259799        0.3614113697       -0.3996216198
 O          2.1121208801        1.3688748700       -0.1646997501
 O          3.0659350198       -0.3616128206       -1.6433251396
 C          4.7510283400        1.0665360994       -0.2056138999
 C          4.9002825202        2.2752222395        0.4472924398
 C          6.1747638203        2.7936245893        0.6170630397
 C          7.2731671802        2.0964775589        0.1371381800
 C          7.1080915200        0.8843946588       -0.5168113298
 C          5.8365369299        0.3620901790       -0.6916274897
 H          5.6568851397       -0.5698326711       -1.2016829795
 H          7.9637927199        0.3461979985       -0.8913363296
 H          8.2636703303        2.5016315687        0.2711638199
 H          6.3052745605        3.7373605694        1.1216535095
 H          4.0162832903        2.7846380598        0.7962912396
 H          3.7319852596       -0.4212687299        1.6289364304
 H          2.5586870193       -1.3549796193        3.3870337906
 H          0.4409002391       -2.3457510486        4.1755223207
 H         -1.3784359110       -2.8101404686        2.5755636908
 H         -2.1760597709       -2.9816515089        0.4644563708
 C         -0.9707714909       -3.1941739396       -1.2814824791
 C         -0.7209071512       -4.6625150097       -1.1164832888
 C         -1.9107808811       -4.1871613296       -1.8936941589
 H         -1.9088195010       -4.3013465198       -2.9672808389
 H         -2.8880786011       -4.2914581293       -1.4451401389
 H          0.1021057387       -5.1064544300       -1.6550507186
 H         -0.8925125713       -5.0911405694       -0.1406262787
 H         -0.3247537707       -2.6448228799       -1.9539480492
