  62
        -98.94442354
 C         -1.8294330575       -0.0192163228       -0.4270192666
 C         -2.9819409667        0.3383333817       -1.1668661944
 C         -4.2626130447       -0.1479614245       -0.6373002487
 C         -4.2685105104       -0.9030414100        0.4765653675
 C         -5.5039756246       -1.4221727630        1.1524000279
 C         -6.0090379289       -0.4396453599        2.2183159566
 C         -6.1225034743        1.0027234433        1.7246637988
 H         -6.5162732102        1.5988959390        2.5507212200
 H         -5.1225840179        1.3824831185        1.5026174794
 C         -7.0183232319        1.1828470896        0.4911401825
 H         -7.6642846649        0.3122468108        0.3721617434
 H         -7.6659164338        2.0472570456        0.6521527276
 C         -6.2584143535        1.4320764328       -0.8129217183
 H         -5.5411074256        2.2439145302       -0.6691405953
 H         -6.9775404402        1.7603978276       -1.5680161535
 C         -5.5095464549        0.2239900886       -1.3895655979
 H         -6.1868574787       -0.6295229376       -1.4597175891
 H         -5.1820708324        0.4873259741       -2.3995748770
 H         -6.9831516097       -0.7837236897        2.5707228091
 H         -5.3158189829       -0.4592275177        3.0625574549
 H         -6.2766119891       -1.5926263122        0.4051546480
 H         -5.2595222428       -2.3712337357        1.6325631151
 O         -3.1387002652       -1.2452254636        1.1478201535
 C         -1.8922380393       -0.8076254822        0.7217326312
 O         -0.9440629252       -1.1855744795        1.4357625620
 H          2.1275246101        0.0747223506       -0.0567706545
 C          1.7466484635       -0.7398436886       -0.6491913306
 C          0.4513956325       -0.7025862175       -1.1417210877
 C         -0.0038733877       -1.7760666269       -1.9037608114
 C          0.8066206716       -2.8683608302       -2.1404937576
 C          2.0902722633       -2.9132027044       -1.6253825206
 C          2.5613839815       -1.8412890533       -0.8773689978
 N          3.8763890246       -1.8414726662       -0.3970371071
 S          4.3335128663       -1.0273219344        0.9867217090
 O          5.6340221448       -1.5823798738        1.3017278871
 O          3.3446276205       -1.1078387418        2.0351354365
 C          4.5488059798        0.6612510371        0.4631376901
 C          4.2157584318        1.6766906422        1.3373840617
 C          4.4307308926        2.9914928691        0.9535688807
 C          4.9715535504        3.2664983087       -0.2929919831
 C          5.3007237351        2.2350761555       -1.1591314574
 C          5.0935778539        0.9185841297       -0.7793820081
 H          5.3391535472        0.0938368934       -1.4269662486
 H          5.7190965384        2.4528983526       -2.1284923269
 H          5.1346786344        4.2903328660       -0.5902215331
 H          4.1752091085        3.7940191232        1.6275113369
 H          3.7844326433        1.4175795347        2.2916944381
 H          4.3812045653       -2.7071325869       -0.5147618716
 H          2.7221786483       -3.7705293657       -1.8004385965
 H          0.4359193347       -3.6964938235       -2.7257894369
 H         -1.0098468870       -1.7449069427       -2.2999048127
 C         -0.4734265071        0.4651499310       -0.9068725577
 H         -0.6664473249        0.9489577576       -1.8764570677
 C          0.0866128620        1.4999533540        0.0461411380
 C          0.9870095578        2.5830876941       -0.4663313478
 C         -0.4129501933        2.9097988513       -0.0437788779
 H         -0.5625596753        3.4626405818        0.8714920631
 H         -1.1433375433        3.1267832911       -0.8095755318
 H          1.2106380123        2.5857015620       -1.5222202624
 H          1.8038994630        2.9127020259        0.1574342192
 H          0.2766025631        1.0963772954        1.0354726779
 O         -2.9398575574        1.0255533625       -2.2226302643
