  62
        -98.94331537
 C         -2.3430182106       -0.5538060674        0.1306750012
 C         -3.3514584346       -0.2548055749        1.0809847240
 C         -4.2950407070        0.8071040846        0.7100633340
 C         -4.1354327208        1.4465519530       -0.4630626522
 C         -5.0490030441        2.5150473728       -0.9882489247
 C         -6.1689237658        1.9147096776       -1.8497318686
 C         -6.8914011860        0.7389068193       -1.1921103004
 H         -7.6794225007        0.4174270994       -1.8766050139
 H         -6.1942772212       -0.0959968413       -1.0903920739
 C         -7.5036398665        1.0567473326        0.1792274152
 H         -7.5918941141        2.1364981833        0.3044446605
 H         -8.5134449219        0.6426795451        0.2162371155
 C         -6.7379572750        0.4701115430        1.3666289555
 H         -7.3660360810        0.5648174076        2.2564314305
 H         -6.5654179786       -0.5962602408        1.2004503559
 C         -5.3915778369        1.1325449551        1.6850021534
 H         -5.5240369643        2.2130525791        1.7693677656
 H         -5.0542270416        0.7509972907        2.6530850654
 H         -5.7339372643        1.5666738970       -2.7894905229
 H         -6.8877370534        2.7032888435       -2.0796526780
 H         -5.4752566908        3.0648289484       -0.1513970079
 H         -4.4599977017        3.2004514896       -1.5999085788
 O         -3.1374529089        1.1549747972       -1.3345744234
 C         -2.2213963779        0.1467956213       -1.0693686223
 O         -1.3753368835       -0.0169313416       -1.9689308022
 H          0.8097823331       -1.4642691494       -1.2331649218
 C          0.9929593080       -1.0075534467       -0.2732750448
 C          0.0051978444       -1.0242717232        0.6986452513
 C          0.2634297641       -0.4096118904        1.9211542251
 C          1.4776090304        0.2051275030        2.1603130058
 C          2.4576502872        0.2289196314        1.1829060305
 C          2.2088341507       -0.3767874108       -0.0407118234
 N          3.1893900276       -0.3330549320       -1.0459898822
 S          4.7525345135       -0.8049804571       -0.6677099797
 O          5.3426631351       -1.2106377150       -1.9247792611
 O          4.7671931507       -1.7853482442        0.3935569253
 C          5.5357713746        0.6971281550       -0.1190892656
 C          5.5153907156        1.7890102878       -0.9645804694
 C          6.1285907733        2.9626772867       -0.5564066628
 C          6.7507429836        3.0235740828        0.6818195269
 C          6.7657017453        1.9175069316        1.5175890338
 C          6.1532074016        0.7406470444        1.1155539296
 H          6.1347216893       -0.1426511293        1.7339346065
 H          7.2501468620        1.9668668983        2.4795497143
 H          7.2266802884        3.9387703865        0.9968856546
 H          6.1185309297        3.8250468797       -1.2034982291
 H          5.0232996621        1.7002656516       -1.9189005222
 H          2.8884436342       -0.7288345885       -1.9245426704
 H          3.4053748744        0.7109040789        1.3594179368
 H          1.6637537416        0.6737163116        3.1147350946
 H         -0.5069269158       -0.4169767718        2.6797706653
 C         -1.3471355731       -1.6515654975        0.4673147606
 H         -1.6919518894       -2.0706876394        1.4225309541
 C         -1.3433897922       -2.7528957766       -0.5718262751
 C         -0.6961511741       -4.0649598758       -0.2466819415
 C         -2.1880016214       -3.9703675810       -0.3516295302
 H         -2.6748998160       -4.4203773111       -1.2038618215
 H         -2.7682227108       -4.0183314029        0.5581543644
 H         -0.1562659392       -4.5826256120       -1.0250912720
 H         -0.2608724338       -4.1746583620        0.7352280941
 H         -1.2637508156       -2.3857337550       -1.5880014605
 O         -3.4568766401       -0.8500564513        2.1864892075
