  62
        -98.93041634
 C          1.2317486704        1.2189053410        0.2148731302
 C          1.8619162105        0.3686736913        1.1560211904
 C          2.6978490212       -0.7150701083        0.6161265007
 C          2.7819811117       -0.8761775383       -0.7153007793
 C          3.5459422324       -1.9238096179       -1.4864340990
 C          4.9673148524       -2.2555318772       -1.0105726486
 C          5.7378048817       -1.0798046269       -0.3922290683
 H          6.7150349418       -1.0040675964       -0.8727175679
 H          5.2094086013       -0.1437109471       -0.5804741784
 C          5.9674878612       -1.2422101368        1.1124483418
 H          6.2599294017       -2.2754387966        1.3124777619
 H          6.8024445808       -0.6038673164        1.4115233221
 C          4.7791130608       -0.8778735774        2.0019330614
 H          5.0305071705       -1.1543649573        3.0288659015
 H          4.6264170602        0.2048256626        1.9911987814
 C          3.4431617912       -1.5393813080        1.6261119009
 H          2.8165979709       -1.5611064483        2.5221766207
 H          3.5938686118       -2.5604542379        1.2834895910
 H          4.9302605326       -3.0717148972       -0.2903000186
 H          5.5116587829       -2.6298365969       -1.8791929484
 H          3.5836598026       -1.5493686478       -2.5120885490
 H          2.9536981929       -2.8435570882       -1.4993399393
 O          2.1079393516       -0.0756912286       -1.5841175195
 C          1.3187318009        0.9838242611       -1.1581823597
 O          0.7718574010        1.6026184908       -2.0846678399
 O          1.7272944700        0.5040688012        2.4030551904
 C          0.3868585996        2.3645262806        0.7606932200
 C         -1.0409957101        2.1316718799        0.3380316295
 C         -1.6648812100        2.6519435196       -0.7891819707
 C         -2.9585782197        2.2784474290       -1.1153753812
 C         -3.6582832495        1.3699727987       -0.3436761214
 C         -3.0409104796        0.8304167589        0.7765727488
 C         -1.7544313799        1.2177516295        1.1102392992
 H         -1.2769561100        0.7814227198        1.9788486694
 N         -3.7208970694       -0.1459531414        1.5405424585
 S         -4.0779948685       -1.5440799416        0.6837662784
 O         -5.2425578983       -1.3122842921       -0.1316905920
 O         -4.1944331283       -2.5910969716        1.6735279783
 C         -2.6485562680       -1.8051046809       -0.3519754011
 C         -2.7065498777       -1.4850883309       -1.6928541111
 C         -1.5636658674       -1.6217262603       -2.4636172708
 C         -0.3880601474       -2.0704360997       -1.8832636504
 C         -0.3451170077       -2.3861809198       -0.5339855904
 C         -1.4837145980       -2.2477964303        0.2421046793
 H         -1.4834486682       -2.4877204203        1.2937652793
 H          0.5735370823       -2.7239146693       -0.0801897701
 H          0.5019796129       -2.1640197593       -2.4853000601
 H         -1.5875144371       -1.3691662103       -3.5113002908
 H         -3.6400283577       -1.1405622613       -2.1065435915
 H         -3.2282649696       -0.3899772012        2.3888247887
 H         -4.6571087493        1.0542666682       -0.5980164418
 H         -3.4227584296        2.6963352588       -1.9957338113
 H         -1.1396927401        3.3233262699       -1.4435814805
 H          0.4135710793        2.2098262706        1.8509554500
 C          1.0481041591        3.7180424809        0.5437338002
 C          1.1826996392        4.4392936810       -0.7623324597
 C          0.2922790185        4.9912977505        0.3099715000
 H          0.6167281379        5.8782686007        0.8338156501
 H         -0.7759957714        4.9280289900        0.1772416796
 H          2.1200895590        4.9429597714       -0.9535897994
 H          0.7566468197        3.9914738308       -1.6442284299
 H          1.9149830988        3.8002510813        1.1959799805
