  62
        -98.94586830
 C         -1.6946216505       -1.3079169341        0.4184087544
 C         -1.3009688913       -0.2178331632       -0.3944044346
 C         -1.9092289484        1.0774940076       -0.0691222451
 C         -2.7316724132        1.1862780251        0.9884938881
 C         -3.4043515470        2.4449393893        1.4653111184
 C         -4.7027843456        2.7841882922        0.7198418551
 C         -4.5201396181        3.2932810469       -0.7106172467
 H         -5.4823604123        3.6977262455       -1.0308997047
 H         -3.8038967039        4.1154640074       -0.7120323332
 C         -4.0769751730        2.2193704125       -1.7138738730
 H         -4.2605858721        1.2291460824       -1.2906268841
 H         -4.6807280220        2.2972888674       -2.6206936081
 C         -2.6105287938        2.3130525043       -2.1352420153
 H         -2.3966407994        1.4860546408       -2.8167245037
 H         -2.4434936608        3.2474273716       -2.6752992102
 C         -1.6146935590        2.2384199843       -0.9701938998
 H         -0.6110210013        2.0958691555       -1.3782693430
 H         -1.6250205716        3.1685618383       -0.4019233195
 H         -5.3422833772        1.8983652594        0.7134310626
 H         -5.2145184013        3.5584965459        1.2961176060
 H         -3.6420966008        2.2879590606        2.5199307168
 H         -2.7071030504        3.2803723537        1.3907524637
 O         -3.0384138708        0.1280476194        1.7863049792
 C         -2.5280184022       -1.1329344459        1.5246984314
 O         -2.8814068226       -2.0067694809        2.3437737051
 O         -0.4852968132       -0.3097959361       -1.3483724562
 C         -1.1254066393       -2.7008936738        0.2066881436
 C          0.3642261918       -2.6038806210       -0.0193018097
 C          1.0348983996       -3.2110340348       -1.0730041129
 C          2.4041516330       -3.0604468260       -1.2135137383
 C          3.1265369414       -2.2825656652       -0.3278620392
 C          2.4630145799       -1.6694415407        0.7287547449
 C          1.1023159058       -1.8597102285        0.8939881256
 H          0.6020258902       -1.3763173554        1.7215931189
 N          3.1400177571       -0.8302827182        1.6415123884
 S          2.7324763768        0.7965070110        1.5886399200
 O          3.5734855050        1.4286231346        2.5836034414
 O          1.3114168921        0.9540748853        1.7607698062
 C          3.2515750879        1.3221359544       -0.0361875546
 C          4.4686017978        1.9651879557       -0.1625418216
 C          4.9187602835        2.3105689062       -1.4261525652
 C          4.1525528534        1.9976411618       -2.5391522233
 C          2.9364764359        1.3484740736       -2.3947788279
 C          2.4759944058        1.0027292726       -1.1327116235
 H          1.5300446492        0.4994094721       -1.0006693878
 H          2.3354151671        1.1005329078       -3.2549897387
 H          4.5038205213        2.2612262056       -3.5243528492
 H          5.8635498574        2.8175243285       -1.5389320426
 H          5.0278896556        2.1878586223        0.7319170853
 H          4.1471144653       -0.9134071483        1.5958372306
 H          4.1897571857       -2.1419168049       -0.4531863622
 H          2.9112947146       -3.5383802737       -2.0376392774
 H          0.4844103642       -3.7861926400       -1.7990649945
 H         -1.2836276996       -3.2201676542        1.1671508420
 C         -1.8497483587       -3.5168165161       -0.8544382656
 C         -3.2731066011       -3.2199027488       -1.2190098629
 C         -2.1765408167       -2.9530237848       -2.2034291026
 H         -2.0946067781       -3.6005320936       -3.0641029322
 H         -1.8935783325       -1.9304378383       -2.3945759003
 H         -3.9390182828       -4.0508647358       -1.3978658775
 H         -3.7481530355       -2.3776889613       -0.7364206903
 H         -1.5786469566       -4.5672453893       -0.8149837316
