  62
        -98.94455760
 C         -2.6126883107       -1.2323384612        0.1372301375
 C         -2.6386332928       -0.2857603852       -0.9154672020
 C         -3.4526273663        0.9167442821       -0.6804076287
 C         -4.1194544894        1.0544995293        0.4791291817
 C         -4.9328878986        2.2536864002        0.8685424901
 C         -4.0814807426        3.2793797466        1.6298131418
 C         -2.7555818903        3.6152139712        0.9462151871
 H         -2.2586070173        4.3741641381        1.5546059701
 H         -2.1108348082        2.7324720832        0.9535091758
 C         -2.8944277506        4.1278201359       -0.4940637379
 H         -2.2371723598        4.9905127766       -0.6221557503
 H         -3.9157556940        4.4677510782       -0.6701589863
 C         -2.5060395088        3.1116492587       -1.5698199792
 H         -1.5184566037        2.6993343406       -1.3422190330
 H         -2.4249971574        3.6409189561       -2.5233493408
 C         -3.4861421322        1.9487490430       -1.7724750397
 H         -4.4970301117        2.3395790122       -1.9038283476
 H         -3.1970841587        1.4269241822       -2.6894172203
 H         -4.6684721706        4.1912348417        1.7532311114
 H         -3.8610469355        2.8791069458        2.6219955882
 H         -5.3535189527        2.7076636557       -0.0264757418
 H         -5.7471094243        1.9209919407        1.5144079942
 O         -4.0875359003        0.1182771793        1.4602203589
 C         -3.3272754560       -1.0287639238        1.3230598759
 O         -3.3745199189       -1.7911497747        2.3086679150
 O         -2.0251856069       -0.4133515366       -2.0100528404
 C         -1.7893274551       -2.5127231127        0.0875979739
 C         -0.3424688782       -2.1842934671        0.3692217746
 C          0.2352765603       -2.5111427848        1.5908008308
 C          1.5427108051       -2.1538748993        1.8702601845
 C          2.2967626270       -1.4567890725        0.9429170784
 C          1.7243269058       -1.1165869418       -0.2753458605
 C          0.4211406958       -1.4935885197       -0.5611581352
 H         -0.0232107289       -1.2052889070       -1.5020779741
 N          2.4745393359       -0.3783755966       -1.2142568870
 S          3.0249643856        1.1217704743       -0.6855941345
 O          2.1690092245        1.6666694531        0.3442076911
 O          3.1831772255        1.9202677076       -1.8816613133
 C          4.6351187290        0.7604693979       -0.0161913879
 C          4.9276683832        1.0861111718        1.2935467331
 C          6.1897098962        0.7975022090        1.7896944011
 C          7.1311561020        0.1922094027        0.9714248483
 C          6.8220630941       -0.1264109766       -0.3427625284
 C          5.5630077971        0.1605629372       -0.8451806492
 H          5.2823996463       -0.0664409339       -1.8600654177
 H          7.5569934599       -0.5969574864       -0.9757598269
 H          8.1116705090       -0.0324559397        1.3604836913
 H          6.4316146302        1.0446596453        2.8109381035
 H          4.1608586404        1.5496681081        1.8936557740
 H          1.9890503789       -0.2670347938       -2.0943004532
 H          3.3120902378       -1.1657809068        1.1583481241
 H          1.9775182349       -2.4155379319        2.8229081696
 H         -0.3581158526       -3.0294880685        2.3303192938
 H         -2.1592509980       -3.1331734864        0.9143999898
 C         -1.9620721892       -3.2854842238       -1.2046316357
 C         -1.5923118030       -4.7369329156       -1.2343076083
 C         -3.0330605616       -4.3288150041       -1.2935399949
 H         -3.5656567852       -4.4408677282       -2.2259917832
 H         -3.6465915964       -4.4909362803       -0.4190981429
 H         -1.1329356982       -5.1328580765       -2.1268878983
 H         -1.2286715915       -5.1780295572       -0.3186085185
 H         -1.7717491779       -2.6974731682       -2.0923085388
