  62
        -98.94030473
 C          2.3593120532       -0.0405156028       -0.1960466750
 C          3.4405935710       -0.2252156552       -1.0901277250
 C          4.7256297419        0.3494130292       -0.6720633725
 C          4.7989900537        1.0126074038        0.4967766023
 C          6.0562504965        1.5984417803        1.0699808990
 C          6.7765655738        0.5898967421        1.9759727043
 C          6.9584043565       -0.7899972304        1.3436527095
 H          7.5031535406       -1.4071379370        2.0614329535
 H          5.9774915562       -1.2502763410        1.2041217384
 C          7.7085118694       -0.7812005575        0.0043655671
 H          8.4458564200       -1.5866505878        0.0106530388
 H          8.2537859479        0.1564424076       -0.1088733865
 C          6.8197137787       -1.0010728498       -1.2210834631
 H          7.4668036860       -1.1933116810       -2.0810570224
 H          6.2021892152       -1.8903602592       -1.0713924751
 C          5.8985036030        0.1671829723       -1.5940964357
 H          6.4813320020        1.0878177438       -1.6636780729
 H          5.4735138234       -0.0465687816       -2.5792567827
 H          6.1946634817        0.4717312483        2.8929086043
 H          7.7517842752        1.0011923221        2.2426549379
 H          6.7115389264        1.9044468023        0.2568037372
 H          5.7883866708        2.4765487114        1.6597953157
 O          3.7334656927        1.1863074895        1.3204242776
 C          2.4892697835        0.6620288569        1.0018042619
 O          1.6034911858        0.8893386633        1.8474006609
 H         -1.6000338097       -0.6580241079        0.3543051478
 C         -1.3293375943        0.2616045584       -0.1369420264
 C         -0.0501188739        0.4496984906       -0.6351703787
 C          0.2454518834        1.6554114978       -1.2668801352
 C         -0.7094099476        2.6466412591       -1.3814289840
 C         -1.9892944671        2.4496385744       -0.8930512742
 C         -2.2976712538        1.2479088033       -0.2687141209
 N         -3.5835123507        1.0100592446        0.2432089934
 S         -4.2123538542       -0.5512713148        0.0907952248
 O         -3.7994308935       -1.3359482675        1.2268306688
 O         -3.8867599724       -1.0882342370       -1.2108757782
 C         -5.9614864209       -0.2147927049        0.1938634897
 C         -6.5662718976       -0.1662656713        1.4355072341
 C         -7.9198491442        0.1221953106        1.5101607104
 C         -8.6417071403        0.3574995821        0.3494970473
 C         -8.0214205197        0.3040349158       -0.8898419485
 C         -6.6682245890        0.0164076688       -0.9716660879
 H         -6.1470869133       -0.0475211406       -1.9134375969
 H         -8.5859614025        0.4836001709       -1.7906015124
 H         -9.6951281836        0.5806446290        0.4108094917
 H         -8.4062697704        0.1611950188        2.4714490809
 H         -5.9667005434       -0.3643268047        2.3087410620
 H         -4.2539227003        1.7145562921       -0.0325256154
 H         -2.7381546305        3.2210624685       -0.9895880925
 H         -0.4593617676        3.5781656832       -1.8669210764
 H          1.2397981728        1.8057855166       -1.6654541990
 C          1.0068169675       -0.6243226451       -0.5543634674
 H          1.1288808442       -1.0496848548       -1.5630136635
 C          0.6489708656       -1.7441758289        0.4008167185
 C         -0.2114837052       -2.8838299505       -0.0534921972
 C          1.2500734989       -3.1011132226        0.1951086264
 H          1.5476499161       -3.6709581819        1.0625060933
 H          1.8992636185       -3.2303809257       -0.6587208806
 H         -0.9256861264       -3.2980789394        0.6430643464
 H         -0.5608927341       -2.8703289646       -1.0753656564
 H          0.5340736196       -1.3964271138        1.4221409785
 O          3.3336298466       -0.8363706627       -2.1880316091
