  62
        -98.93704943
 C          1.4895394270        1.3638359522        0.4841854978
 C          1.8746207145        0.9598079448       -0.8190801313
 C          2.7972207368       -0.1861393139       -0.8846352886
 C          3.2369123378       -0.7545180150        0.2519931834
 C          4.1135845099       -1.9703772835        0.3223173586
 C          3.2689316748       -3.2493267587        0.4108698016
 C          2.1498185062       -3.3221030981       -0.6285939492
 H          1.6366230882       -4.2762875749       -0.4900890968
 H          1.4210787597       -2.5330554698       -0.4260261596
 C          2.6291815572       -3.2097173836       -2.0830317985
 H          3.6984449333       -3.4174082606       -2.1376366903
 H          2.1210642071       -3.9709601897       -2.6790566377
 C          2.3432352978       -1.8614344759       -2.7477003095
 H          1.2867566696       -1.6070457968       -2.6237538671
 H          2.5272040954       -1.9661623543       -3.8203277729
 C          3.1839417832       -0.6780962618       -2.2509000546
 H          4.2435534866       -0.9384000363       -2.2854624911
 H          3.0129855678        0.1594730266       -2.9337023036
 H          3.9300130541       -4.1100906262        0.2963833107
 H          2.8190772066       -3.2959777096        1.4049962034
 H          4.7552710069       -2.0041516675       -0.5557539443
 H          4.7377891899       -1.8948547301        1.2141474454
 O          2.8769505401       -0.3150193416        1.4836008356
 C          1.9817368323        0.7314638645        1.6296564177
 O          1.6998928140        1.0005422100        2.8128787221
 H         -0.5009898071        0.1650308481       -0.3233233974
 C         -1.1634585006        1.0029544254       -0.4995767760
 C         -0.7944534712        2.2692818553       -0.0665823444
 C         -1.6736577262        3.3198966049       -0.3106087113
 C         -2.8810583808        3.1047036098       -0.9518655689
 C         -3.2396198196        1.8387710134       -1.3802289569
 C         -2.3600706683        0.7898948799       -1.1662987284
 N         -2.7267192841       -0.5162795921       -1.5952912412
 S         -3.5623753745       -1.3769054953       -0.4267996787
 O         -3.7910286487       -2.6929962048       -0.9775748129
 O         -4.7288862608       -0.6170911537       -0.0597670239
 C         -2.4287016870       -1.4793078322        0.9465847098
 C         -1.4975435350       -2.4986321559        0.9613914723
 C         -0.5341526826       -2.5122628171        1.9573918210
 C         -0.5088258184       -1.5022133978        2.9068199313
 C         -1.4504917821       -0.4852943166        2.8773516199
 C         -2.4198643194       -0.4685732072        1.8873517792
 H         -3.1660099760        0.3075065352        1.8271672250
 H         -1.4124510383        0.3025321490        3.6122513344
 H          0.2576205683       -1.4913094435        3.6657928352
 H          0.1991293373       -3.3027934308        1.9843458418
 H         -1.5476168918       -3.2630091478        0.2017312260
 H         -1.9328796951       -1.0675920120       -1.8912814255
 H         -4.1795670709        1.6471257288       -1.8708746968
 H         -3.5510204424        3.9337796058       -1.1204894894
 H         -1.4152022251        4.3164416109        0.0084892536
 C          0.4767247117        2.4642403412        0.7296980344
 H          0.1984508714        2.3434034766        1.7905384817
 C          1.0366475750        3.8793159727        0.5945414553
 C          2.4903976027        4.1403617874        0.3394232095
 C          1.4806887445        4.4220661313       -0.7297550560
 H          1.2550378315        5.4504514857       -0.9706498415
 H          1.4416781080        3.7475429847       -1.5708848488
 H          3.1431010341        3.2894702995        0.2075053207
 H          2.9556624896        4.9709399563        0.8496226164
 H          0.5530690860        4.5820923019        1.2650549447
 O          1.4632378304        1.4969531269       -1.8797564947
