  62
        -98.93627075
 C         -2.3535059401       -0.9784086093        0.4375434301
 C         -2.5592965598        0.1245520510       -0.4244441496
 C         -3.5693368496        1.1101325611        0.0037448906
 C         -4.2146553496        0.9421595010        1.1697662606
 C         -5.2376160294        1.8416898010        1.8167126608
 C         -6.3376446293        2.4261228015        0.9188423210
 C         -6.7645399095        1.5327170819       -0.2549360292
 H         -6.3578978497        0.5278179517       -0.1289608495
 H         -7.8526687895        1.4454921421       -0.2560687792
 C         -6.3380630594        2.0895521421       -1.6155095591
 H         -6.5250247892        3.1656278421       -1.6274051988
 H         -6.9642702595        1.6410353124       -2.3905690092
 C         -4.8829509695        1.8309692718       -2.0044995192
 H         -4.6802873994        2.3760134820       -2.9297663391
 H         -4.7407097797        0.7687846219       -2.2216914694
 C         -3.8354631894        2.2358377514       -0.9543909091
 H         -2.8921137993        2.4220661113       -1.4747914591
 H         -4.1297100192        3.1442832513       -0.4345725889
 H         -6.0160621091        3.3912244915        0.5295746012
 H         -7.1988885792        2.6183278815        1.5608413210
 H         -4.7061286192        2.6605690808        2.3100778110
 H         -5.6915025495        1.2334446510        2.6026450007
 O         -3.9743678999       -0.1261908093        1.9801058903
 C         -3.0613432601       -1.1042423394        1.6372394101
 O         -2.9703841903       -2.0292653896        2.4687145099
 O         -1.9383675098        0.3112189611       -1.5058750096
 C         -1.3747098003       -2.1053873994        0.1430047598
 C          0.0456290698       -1.7029559898        0.4633092199
 C          0.7467443096       -2.3292328402        1.4872296697
 C          2.0532776097       -1.9701629906        1.7684649898
 C          2.6857474999       -0.9800530306        1.0380198600
 C          1.9931105201       -0.3465560902        0.0145669802
 C          0.6848416700       -0.7126860798       -0.2688115199
 H          0.1460247401       -0.2092992295       -1.0580326497
 N          2.6156496903        0.6780459299       -0.7190255496
 S          4.1380268602        0.3884970297       -1.3615584197
 O          4.2539379704        1.2872182599       -2.4892846395
 O          4.3409944499       -1.0153406903       -1.6357723300
 C          5.2510584403        0.9259179291       -0.0794146596
 C          5.1104892006        2.2107338790        0.4075546907
 C          5.9774032708        2.6506225486        1.3949503208
 C          6.9666470106        1.8043976783        1.8738419506
 C          7.0965573203        0.5183354183        1.3726452903
 C          6.2316801102        0.0717572588        0.3854320202
 H          6.2915532899       -0.9214402311       -0.0303761100
 H          7.8664097401       -0.1375888519        1.7461492501
 H          7.6402206207        2.1498576279        2.6421676707
 H          5.8791351110        3.6500069285        1.7873921111
 H          4.3310570008        2.8371315793        0.0065465909
 H          2.0089697004        1.1010485002       -1.4069702095
 H          3.7034084800       -0.6964774709        1.2521443201
 H          2.5849190196       -2.4653974809        2.5666828097
 H          0.2553202795       -3.0949508603        2.0700118496
 H         -1.6514790405       -2.9183474695        0.8275295796
 C         -1.4824929405       -2.6236057491       -1.2787245603
 C         -0.9776124408       -3.9989468691       -1.5898269506
 C         -2.4509145907       -3.7232756288       -1.5881080205
 H         -2.9743629807       -3.6984211085       -2.5321906205
 H         -3.0415617008       -4.1136550789       -0.7718778206
 H         -0.4844110209       -4.1646078390       -2.5354863407
 H         -0.5694902609       -4.5777616794       -0.7750405708
 H         -1.3480784603       -1.8569172489       -2.0302511401
