  62
        -98.93308136
 C          2.5955302717        0.1145630826       -0.2223785182
 C          2.3340448564        1.2762046515       -0.9897162004
 C          1.7717244760        2.4358503576       -0.2802621456
 C          1.5221417783        2.3411962647        1.0366167892
 C          0.9969416259        3.3941337120        1.9815952616
 C         -0.1364906131        4.3008906426        1.4888617187
 C         -1.1682556739        3.6137837194        0.5826918228
 H         -1.0322765006        2.5300906009        0.6114525827
 H         -2.1692606043        3.8253712306        0.9651283908
 C         -1.1052361706        4.1015967934       -0.8668435460
 H         -2.0533255714        3.8680796130       -1.3577277341
 H         -0.9932699662        5.1883651080       -0.8701653922
 C          0.0055241163        3.4816356765       -1.7117909797
 H         -0.1945296538        2.4147624351       -1.8486311714
 H         -0.0206408820        3.9456063002       -2.7009921377
 C          1.4264369445        3.6195202830       -1.1382651778
 H          1.5461424256        4.5567877433       -0.6005573193
 H          2.1324369793        3.6035201692       -1.9730936845
 H         -0.6348399600        4.6872879879        2.3799719623
 H          0.2831767920        5.1598247560        0.9664898908
 H          0.6600968327        2.8377144676        2.8600946738
 H          1.8408756533        4.0159774555        2.2969800119
 O          1.7825948315        1.2036854434        1.7385405227
 C          2.2501588569        0.0513309976        1.1293827106
 O          2.3297407462       -0.9243534235        1.8997461070
 O          2.5551653998        1.3400878032       -2.2305126475
 C          3.0158084938       -1.1414883918       -0.9742173863
 C          1.9525542931       -2.1741006335       -0.7003967249
 C          2.1606157344       -3.3823953957       -0.0513541853
 C          1.0849079919       -4.1841919585        0.2953046349
 C         -0.2140430082       -3.7917823116        0.0238671071
 C         -0.4252033069       -2.5988366256       -0.6508130446
 C          0.6503348698       -1.8189010605       -1.0305467156
 H          0.4737756249       -0.8746716842       -1.5328924405
 N         -1.7575225220       -2.1225854065       -0.8555906912
 S         -2.1253569201       -1.0596506949        0.4202154297
 O         -1.3038765676        0.1292497213        0.3405815664
 O         -2.0610289470       -1.8128006563        1.6465647520
 C         -3.8213232415       -0.6479604625        0.0511239617
 C         -4.7789583313       -1.6322205076        0.2036545922
 C         -6.0963177137       -1.3378622628       -0.1084982997
 C         -6.4317392152       -0.0718128859       -0.5659588211
 C         -5.4593133159        0.9052721173       -0.7135487294
 C         -4.1388758302        0.6164015028       -0.4048304215
 H         -3.3491103590        1.3450031403       -0.4996668158
 H         -5.7220174245        1.8891486142       -1.0676223437
 H         -7.4579524443        0.1553733070       -0.8078921106
 H         -6.8557166780       -2.0944381308        0.0054710651
 H         -4.4700997309       -2.5975001215        0.5684924491
 H         -1.8070398677       -1.5724855237       -1.7059895789
 H         -1.0595446267       -4.3776692301        0.3447804864
 H          1.2610873662       -5.1128008504        0.8168328750
 H          3.1611630716       -3.6747082604        0.2238460865
 H          2.9468517843       -0.8505622350       -2.0362569063
 C          4.4383341779       -1.6225198882       -0.7553443256
 C          5.5283021920       -0.6505038059       -0.4171236630
 C          5.0969352662       -1.6728690459        0.5890546761
 H          5.7642108031       -2.4973712243        0.7947902039
 H          4.5224303721       -1.3517219663        1.4425598869
 H          6.4900806136       -0.7660557676       -0.8937069117
 H          5.2396963571        0.3776331282       -0.2514510077
 H          4.7007085214       -2.4151740768       -1.4499870415
