  62
        -98.93940711
 C         -1.7858960243       -1.5409885489        0.1904901211
 C         -1.5995379514       -0.2347934209       -0.3159293960
 C         -2.6363898340        0.7621449167        0.0238246953
 C         -3.6823499054        0.3813807607        0.7803502121
 C         -4.8658431562        1.2016768617        1.2219220823
 C         -5.8800341173        1.4417983589        0.0931080631
 C         -5.2670828477        1.8559172321       -1.2417047821
 H         -4.5759881527        1.0793618006       -1.5739563231
 H         -6.0754835216        1.9061779769       -1.9760183881
 C         -4.5531512929        3.2056942768       -1.2384274493
 H         -5.2528738056        3.9802861775       -0.9169323010
 H         -4.2703519053        3.4235244375       -2.2715296605
 C         -3.2927703233        3.2939673934       -0.3739569022
 H         -3.5425554165        3.4241550197        0.6755440455
 H         -2.7540022482        4.1956457774       -0.6790165206
 C         -2.3261178090        2.1264377694       -0.5424709786
 H         -2.1286430083        1.9744647136       -1.6096329262
 H         -1.3590020282        2.4018755018       -0.1068126482
 H         -6.4343175947        0.5136909143       -0.0674028309
 H         -6.5884178728        2.2035511345        0.4235707692
 H         -5.3584700041        0.6361713763        2.0161135333
 H         -4.5313554984        2.1436954657        1.6460892148
 O         -3.8194065749       -0.8954776229        1.2434243175
 C         -2.8858734342       -1.8761266794        0.9790960820
 O         -3.1374941070       -2.9857538126        1.4921383327
 O         -0.6175238842        0.0998017988       -1.0286442559
 C         -0.7548781508       -2.6232369962       -0.0823253716
 C          0.5695287977       -2.1590355495        0.4711790347
 C          0.6946410399       -1.9987033279        1.8489605660
 C          1.8642814567       -1.5137040483        2.4013751230
 C          2.9313519899       -1.1653489853        1.5909193006
 C          2.8128887448       -1.3142617607        0.2163477230
 C          1.6429595479       -1.8212910015       -0.3354892646
 H          1.5682519298       -1.9267125848       -1.4058679290
 N          3.8833744288       -0.9477850614       -0.6190262511
 S          4.6156536310        0.5344001016       -0.3592156290
 O          5.2671155731        0.8531330728       -1.6101339643
 O          5.4772489461        0.4449563372        0.7938129172
 C          3.2929583400        1.6873279236       -0.0405604705
 C          2.4748238476        2.0474461438       -1.0924044499
 C          1.4366828462        2.9338360265       -0.8620003128
 C          1.2315789522        3.4372492076        0.4133050231
 C          2.0583264004        3.0620804064        1.4606258985
 C          3.1011179168        2.1784734505        1.2344484992
 H          3.7723600469        1.8701311304        2.0191888636
 H          1.8936113559        3.4549704513        2.4512271921
 H          0.4235118074        4.1299914852        0.5921560999
 H          0.7881833558        3.2203460103       -1.6739700220
 H          2.6648065184        1.6431538635       -2.0733781300
 H          3.6859201841       -1.0742964428       -1.6012073933
 H          3.8501840588       -0.7810058604        2.0026230746
 H          1.9469378479       -1.3997456583        3.4716854398
 H         -0.1467290495       -2.2530092946        2.4796788363
 H         -1.0794805877       -3.5039720360        0.4885491265
 C         -0.7249794775       -2.9788866026       -1.5534686132
 C         -0.1387427506       -4.2863883719       -1.9918905008
 C         -1.6201233071       -4.0690548318       -2.0571161351
 H         -2.0825356271       -3.9502303515       -3.0256224281
 H         -2.2460562462       -4.5727248372       -1.3349231233
 H          0.4152108125       -4.3217136571       -2.9178449271
 H          0.2441366975       -4.9428706857       -1.2252379014
 H         -0.5882950029       -2.1159174499       -2.1945407351
