  62
        -98.93781977
 C          1.9255426891        1.1317833064       -0.1256581030
 C          2.4464865375       -0.0200486121       -0.7599880000
 C          3.9086421577       -0.1922814223       -0.6925685152
 C          4.6564018574        0.7333272621       -0.0677519064
 C          6.1564021659        0.7798497798        0.0827252299
 C          6.8709331358       -0.5282688439        0.4510217061
 C          6.0604699291       -1.4857533391        1.3368601001
 H          5.1789913031       -0.9770877155        1.7307875421
 H          6.6732494764       -1.7835809134        2.1897496078
 C          5.6293990125       -2.7578906833        0.6027322900
 H          5.4006663778       -3.5295825287        1.3416974453
 H          6.4692662155       -3.1178973283        0.0043455048
 C          4.4012040653       -2.6150023724       -0.2957547389
 H          3.5044796691       -2.4843030080        0.3164835642
 H          4.2767820588       -3.5503552717       -0.8468896424
 C          4.4486154971       -1.4536877618       -1.3021070036
 H          3.7777908966       -1.6999431625       -2.1298188991
 H          5.4519052188       -1.3143448074       -1.6976231175
 H          7.7927832122       -0.2500820059        0.9645778626
 H          7.1647181076       -1.0511494134       -0.4581038377
 H          6.5795720893        1.1687263066       -0.8479121599
 H          6.3405409919        1.5282281369        0.8571346264
 O          4.1101699545        1.8358968410        0.5196306707
 C          2.7445263820        2.0590946028        0.5156612534
 O          2.3890159346        3.0970169739        1.1100329813
 H         -1.6890697664       -0.0763423121       -1.1698275664
 C         -1.3561443933       -0.4145634778       -0.2036049722
 C         -0.3027579614        0.2100687880        0.4441679841
 C          0.0987744909       -0.2765900264        1.6865221892
 C         -0.5207535425       -1.3738330905        2.2504654268
 C         -1.5654643157       -2.0023005335        1.5947805060
 C         -1.9812879567       -1.5199825532        0.3605153327
 N         -3.0278555019       -2.1493629407       -0.3314461406
 S         -4.2162009284       -1.2476429408       -1.0828178466
 O         -5.2936152293       -2.1865321308       -1.3052815503
 O         -3.6915755819       -0.5923235362       -2.2528253859
 C         -4.7006362107       -0.0459476405        0.1423281119
 C         -5.4942169423       -0.4697625521        1.1907835767
 C         -5.8321622935        0.4342194772        2.1842211055
 C         -5.3665950230        1.7388735805        2.1168379022
 C         -4.5728788097        2.1487817091        1.0570532923
 C         -4.2339614013        1.2494980564        0.0581401974
 H         -3.6227676267        1.5317149995       -0.7829753975
 H         -4.2142043086        3.1645020196        1.0045884497
 H         -5.6260806513        2.4418056471        2.8926985052
 H         -6.4538196786        0.1204707756        3.0072252561
 H         -5.8457768994       -1.4887237627        1.2004953559
 H         -3.4251212990       -2.9452955450        0.1455017265
 H         -2.0447139023       -2.8666878018        2.0285987577
 H         -0.1900851655       -1.7445650401        3.2090728561
 H          0.9177083370        0.2130321485        2.1966818134
 C          0.4299684222        1.3942669896       -0.1371334338
 H          0.2695322773        2.2579353638        0.5248223105
 C         -0.0186125902        1.7642612972       -1.5352294169
 C         -1.1689505557        2.7025166793       -1.7360947845
 C          0.2286556860        3.1561743188       -2.0310345222
 H          0.5239914962        3.2918738488       -3.0606432111
 H          0.6972322987        3.8489057338       -1.3468761998
 H         -1.6451987740        3.1011352542       -0.8528842517
 H         -1.8396811386        2.5255972155       -2.5642672609
 H          0.1116494358        0.9553786601       -2.2455366040
 O          1.7318201334       -0.8635303150       -1.3611538521
