  62
        -98.94476293
 C         -2.0193796237       -1.1377251988       -0.2696086011
 C         -3.1109243986       -1.1719192263        0.6395013581
 C         -4.3312223681       -0.4756758241        0.2218164399
 C         -4.3742347772        0.1271339761       -0.9797555586
 C         -5.5527050557        0.8562882746       -1.5653139779
 C         -5.6769076899        2.3146219799       -1.1032036697
 C         -6.1342517115        2.5016618073        0.3440337480
 H         -6.3884791812        3.5565230667        0.4654298800
 H         -7.0448326737        1.9261193684        0.5133739016
 C         -5.0809668060        2.1243008523        1.3952813209
 H         -4.0962135302        2.0751898891        0.9242621717
 H         -5.0303100684        2.9057479160        2.1569221784
 C         -5.3502300204        0.8042900515        2.1180503345
 H         -6.2677547659        0.8885310563        2.7045910967
 H         -4.5239993562        0.6185584716        2.8090418197
 C         -5.4739238017       -0.4106633960        1.1893289254
 H         -6.4235114156       -0.3810670200        0.6553862400
 H         -5.4433383185       -1.3151115580        1.8017275114
 H         -6.4032648338        2.8027400318       -1.7572148247
 H         -4.7142475539        2.8107674706       -1.2478390711
 H         -5.4161319886        0.8491104537       -2.6488932567
 H         -6.4710077889        0.3186982202       -1.3272998944
 O         -3.3181262671        0.1209671591       -1.8325315725
 C         -2.1142183856       -0.4839550536       -1.4979627960
 O         -1.2429590920       -0.3625211435       -2.3838994061
 O         -3.0672029724       -1.7689743823        1.7475161502
 C         -0.7506937290       -1.8502470103        0.1700871998
 C          0.2699698819       -0.8732100446        0.7035640891
 C          0.6642145420       -0.9114905569        2.0358990111
 C          1.6007389239       -0.0149589685        2.5212718436
 C          2.1634574151        0.9352884569        1.6888411786
 C          1.7763098115        0.9801388960        0.3551159886
 C          0.8438208634        0.0753889371       -0.1314109748
 H          0.5390760698        0.1231844619       -1.1662556975
 N          2.3446200093        1.9391042691       -0.5008013945
 S          4.0061659611        2.1288559307       -0.4480535364
 O          4.3575276207        3.0012504439        0.6455623504
 O          4.3838575229        2.5898128850       -1.7656616780
 C          4.6531843593        0.4938324303       -0.1431220513
 C          4.3512996638       -0.5046999867       -1.0480002336
 C          4.8160335029       -1.7873923431       -0.8090125075
 C          5.5701479827       -2.0491603913        0.3247259197
 C          5.8691179065       -1.0347376508        1.2205317165
 C          5.4050693648        0.2501664184        0.9879473773
 H          5.6096148949        1.0675493320        1.6600793413
 H          6.4575192147       -1.2405138379        2.1000860806
 H          5.9262328482       -3.0503626680        0.5090576190
 H          4.5844707410       -2.5772653988       -1.5053514027
 H          3.7643390970       -0.2699834942       -1.9217734864
 H          2.0068547677        1.8836285930       -1.4505051566
 H          2.8851758634        1.6495814867        2.0509284069
 H          1.8937761309       -0.0540777021        3.5591454382
 H          0.2186889202       -1.6411059108        2.6960382125
 H         -1.0629914746       -2.4927712682        1.0041113723
 C         -0.1502221428       -2.7284401619       -0.9106857068
 C          0.7611969235       -3.8491134097       -0.5136448984
 C         -0.6108887444       -4.1483054946       -1.0371391801
 H         -0.7089844648       -4.5711219458       -2.0257844155
 H         -1.3604126066       -4.4942276416       -0.3402281237
 H          1.6090080489       -4.0701050497       -1.1432035219
 H          0.9444341883       -3.9949498471        0.5398598665
 H          0.0709620401       -2.1965058128       -1.8265958301
