  62
        -98.94291195
 C         -2.6438041100       -1.1886617899        0.2551384301
 C         -2.7784071596       -0.3351931301       -0.8666328101
 C         -3.7886519697        0.7280706899       -0.7497305106
 C         -4.5222226500        0.8308281402        0.3725813592
 C         -5.5350206200        1.9038309502        0.6452607286
 C         -4.8934672202        3.1047934804        1.3545646085
 C         -3.6109273100        3.6037921302        0.6887881688
 H         -3.2668331902        4.4712580803        1.2560759987
 H         -2.8396308501        2.8351719402        0.7787001792
 C         -3.7710930096        3.9902032899       -0.7882502113
 H         -4.8258162395        4.1440803399       -1.0189515517
 H         -3.2601528895        4.9400648298       -0.9592795114
 C         -3.1793526893        2.9825710297       -1.7756911009
 H         -2.1486946794        2.7538241897       -1.4920551706
 H         -3.1503677890        3.4508980694       -2.7632755210
 C         -3.9448670293        1.6608808096       -1.9181377209
 H         -3.5355512791        1.1311353395       -2.7833489506
 H         -5.0000321692        1.8653360596       -2.1097154712
 H         -4.6551406505        2.8139298806        2.3802029587
 H         -5.6248756702        3.9140844704        1.3919211482
 H         -5.9845087298        2.2202549700       -0.2939341716
 H         -6.3125489302        1.4869305704        1.2874942785
 O         -4.3836274303       -0.0190715596        1.4206411994
 C         -3.4459165403       -1.0345858996        1.3921727399
 O         -3.4242841906       -1.7348240094        2.4238017500
 O         -2.1004316593       -0.4294302604       -1.9263674699
 C         -1.6471903300       -2.3364028299        0.3229866107
 C         -0.2523356801       -1.8458352199        0.6335038410
 C          0.3984373795       -2.2446902996        1.7952107012
 C          1.6823651395       -1.8069458396        2.0688054015
 C          2.3405782097       -0.9599653798        1.1951954715
 C          1.6992000001       -0.5550232100        0.0318394513
 C          0.4149727002       -1.0034530401       -0.2441699890
 H         -0.0811854896       -0.6833324903       -1.1485730592
 N          2.3433278804        0.3278734497       -0.8507857288
 S          3.9267906705        0.0096189896       -1.3013418482
 O          4.1074108909        0.6917218893       -2.5640816783
 O          4.2087807405       -1.4072887104       -1.2919202778
 C          4.8982349701        0.8324061599       -0.0558751881
 C          5.8861212199        0.1394338400        0.6159054623
 C          6.6390128097        0.8035150402        1.5719483924
 C          6.3927581596        2.1418716402        1.8368295820
 C          5.3984223398        2.8242437001        1.1516303716
 C          4.6431428701        2.1665682999        0.1939848615
 H          3.8631393603        2.6607976498       -0.3609545688
 H          5.2091307898        3.8648133002        1.3608433113
 H          6.9785489194        2.6563742504        2.5821071421
 H          7.4120975195        0.2747329403        2.1059871727
 H          6.0375507300       -0.9022127601        0.3812712726
 H          1.7803296306        0.5769952796       -1.6514683390
 H          3.3398809297       -0.6147664598        1.4044931717
 H          2.1755791592       -2.1257846894        2.9743886317
 H         -0.1141065807       -2.8944135295        2.4898010912
 H         -1.9754797603       -2.9590088297        1.1658470007
 C         -1.6451933897       -3.1947945002       -0.9281432891
 C         -1.1289657797       -4.5982230202       -0.8430854387
 C         -2.5951928197       -4.3481299502       -1.0280778092
 H         -3.0413765794       -4.5663086904       -1.9867460492
 H         -3.2528660999       -4.5274921900       -0.1897506293
 H         -0.5632205895       -4.9899837604       -1.6745793684
 H         -0.7928423000       -4.9498361500        0.1206804915
 H         -1.4434497594       -2.6381964804       -1.8338056092
