  62
        -98.94596202
 C         -1.5714918373       -1.4818941465       -0.1740067242
 C         -1.5348270509       -0.1002488843       -0.4831695857
 C         -2.8421739946        0.5408630026       -0.6719744415
 C         -3.9676683338       -0.1878312639       -0.5635828032
 C         -5.3715511444        0.3235913222       -0.7427579315
 C         -5.9606254556        0.9796099999        0.5138171478
 C         -5.3821901057        2.3510679395        0.8656054016
 H         -5.4296174652        2.9991030025       -0.0100141568
 H         -6.0324304333        2.7857772292        1.6275199189
 C         -3.9453781559        2.3142187693        1.4055578611
 H         -3.8736382776        2.9491738602        2.2915191813
 H         -3.7013774590        1.2973453164        1.7216192269
 C         -2.8822102632        2.7925528886        0.4164367099
 H         -1.9019052019        2.6774941259        0.8857786782
 H         -3.0340089552        3.8524562818        0.2010550403
 C         -2.8632856121        2.0204211989       -0.9089211204
 H         -1.9463604779        2.2800530597       -1.4428846442
 H         -3.7209663372        2.2983786584       -1.5208682124
 H         -5.8260612657        0.2997349710        1.3584285244
 H         -7.0345363384        1.0937121651        0.3484011049
 H         -5.4013525322        1.0311212091       -1.5717855583
 H         -5.9875932034       -0.5405354183       -1.0007420783
 O         -3.9566566793       -1.5193672943       -0.2832041716
 C         -2.7646858093       -2.1926302274       -0.0609454035
 O         -2.8999984153       -3.4000190702        0.2260657300
 O         -0.4728929506        0.5615394192       -0.5943770730
 C         -0.2666786188       -2.2232428962        0.0538996619
 C          0.5395225536       -1.5006473739        1.1049504554
 C         -0.0636356101       -1.1977034379        2.3236609268
 C          0.6238141635       -0.5031931938        3.2991562377
 C          1.9239874173       -0.0831350582        3.0766145318
 C          2.5390422224       -0.3926425045        1.8703143519
 C          1.8530437502       -1.1118477851        0.9005058947
 H          2.3627667654       -1.3553306190       -0.0155258911
 N          3.8579672603        0.0064121343        1.6194466919
 S          4.3724148072        0.3546623965        0.0704099047
 O          4.6028688421       -0.8673665673       -0.6599696181
 O          5.5392974995        1.1893529872        0.2706799443
 C          3.0864777720        1.3098709804       -0.7129612555
 C          2.6125553282        2.4362618234       -0.0723350664
 C          1.6432273410        3.2025138977       -0.6964247758
 C          1.1709356382        2.8353361999       -1.9457823843
 C          1.6578203854        1.7030518600       -2.5766769459
 C          2.6238367904        0.9301771637       -1.9550526029
 H          3.0233700180        0.0358777799       -2.4077721501
 H          1.2797633403        1.4127720275       -3.5444841168
 H          0.4129949372        3.4321797401       -2.4289672617
 H          1.2527136375        4.0793903442       -0.2049319392
 H          3.0015686454        2.7012521887        0.8977438970
 H          4.2590299477        0.6300820964        2.3034619513
 H          2.4580781431        0.4747895525        3.8304709855
 H          0.1408400258       -0.2737742852        4.2372260382
 H         -1.0865586500       -1.5088260836        2.4898240743
 H         -0.5347127681       -3.2180140304        0.4383641656
 C          0.4690534764       -2.3850471000       -1.2598309894
 C          1.4332778653       -3.5154993369       -1.4521308585
 C          0.1146428146       -3.5246839096       -2.1645984664
 H          0.1013158399       -3.3530774800       -3.2304681881
 H         -0.6478487437       -4.2100589297       -1.8235627328
 H          2.3323063356       -3.3369177763       -2.0233861138
 H          1.5695318730       -4.2009339974       -0.6291135822
 H          0.7006113856       -1.4322960356       -1.7233134882
