  62
        -98.94238855
 C         -0.6281023138       -1.3951441551        0.1022460030
 C         -1.3608103227       -0.6944365475        1.0852865640
 C         -2.4116791677        0.2243756417        0.6058099947
 C         -2.5929487160        0.3630532802       -0.7210572697
 C         -3.6665705087        1.1356212834       -1.4408564269
 C         -5.0334133936        0.4330815430       -1.3848497688
 C         -5.4229193877       -0.1155747290       -0.0148438302
 H         -6.3590142467       -0.6678479332       -0.1326532940
 H         -4.6662752607       -0.8297784117        0.3150122678
 C         -5.6355213801        0.9357464596        1.0719209258
 H         -6.4155761877        1.6303042912        0.7523003320
 H         -6.0003380320        0.4139980723        1.9604140279
 C         -4.3983236710        1.7431396235        1.4714950886
 H         -4.6320040346        2.2555015595        2.4094422785
 H         -4.1855747746        2.5194738218        0.7416340753
 C         -3.1506224096        0.9048703513        1.7325096713
 H         -3.3932061971        0.1182927120        2.4562059836
 H         -2.4040702066        1.5334139277        2.2345933151
 H         -5.0110696896       -0.4067128953       -2.0835097386
 H         -5.7952713999        1.1357259859       -1.7265922467
 H         -3.7391717478        2.1452665052       -1.0494383403
 H         -3.3576898045        1.2002324224       -2.4858309951
 O         -1.8035347019       -0.2721901804       -1.6323958035
 C         -0.8095448746       -1.1560227918       -1.2591621320
 O         -0.1778080914       -1.6538412727       -2.2091938326
 O         -1.1698481550       -0.8467207351        2.3236117025
 C          0.3910852807       -2.4332604917        0.5364697646
 C          1.7599144890       -2.0592925679        0.0295091474
 C          2.5275387183       -2.8729785186       -0.7927433517
 C          3.7669930214       -2.4461858569       -1.2367538827
 C          4.2642591377       -1.2094297243       -0.8717524847
 C          3.5091789715       -0.3935333607       -0.0348591036
 C          2.2699663306       -0.8234013403        0.4104108750
 H          1.6916781192       -0.1926016429        1.0707466906
 N          4.0005079284        0.8541402779        0.3680209256
 S          3.0138718032        2.0631109488        0.9311122724
 O          3.8245576379        3.2581516687        0.8172559752
 O          2.5486070000        1.7555855794        2.2607683283
 C          1.6285485581        2.2075897457       -0.1843080390
 C          1.7930886405        1.9864023199       -1.5365299647
 C          0.7212142196        2.2081577096       -2.3861944503
 C         -0.4840538094        2.6626655763       -1.8764757849
 C         -0.6353773282        2.8760104251       -0.5155367948
 C          0.4281380998        2.6418551988        0.3397784447
 H          0.3495238374        2.7824034368        1.4065051455
 H         -1.5728337162        3.2259974724       -0.1148847146
 H         -1.3105423672        2.8482172247       -2.5435708906
 H          0.8303538985        2.0258170426       -3.4431296297
 H          2.7404484996        1.6408591601       -1.9169050688
 H          4.8158681106        1.1938991989       -0.1181287949
 H          5.2283164266       -0.8752143930       -1.2228654785
 H          4.3513927172       -3.0842017276       -1.8819989071
 H          2.1533445994       -3.8365933065       -1.0950758415
 H          0.4101642801       -2.3827378206        1.6352314015
 C         -0.0631309585       -3.8160577183        0.1174254383
 C          0.4157090426       -5.0232940603        0.8651160506
 C         -1.0057977417       -4.5702702561        1.0045534343
 H         -1.7846437280       -5.1611848977        0.5462320243
 H         -1.3051514814       -4.0955493551        1.9277715015
 H          0.6116824972       -5.9294633831        0.3122976982
 H          1.0830674217       -4.8613930236        1.6980339087
 H         -0.2122224796       -3.9007773320       -0.9531604047
