  62
        -98.93382726
 C         -1.2002768441       -1.3931320924        0.6789566914
 C         -1.6944702370       -0.9351245769       -0.5655036916
 C         -2.8359757492        0.0117800914       -0.5201965910
 C         -3.2366126039        0.4975107211        0.6680074433
 C         -4.3782985157        1.4322209198        0.9803101898
 C         -4.1302663497        2.8919262973        0.5770851982
 C         -3.5666101757        3.0819449889       -0.8272020613
 H         -3.3774354184        4.1491292373       -0.9688051262
 H         -2.6074384693        2.5703602154       -0.9014407977
 C         -4.4756845843        2.6105499874       -1.9592855753
 H         -5.4482638219        3.0991148553       -1.8705872076
 H         -4.0228778400        2.9440002107       -2.8965422085
 C         -4.6904940654        1.0969082528       -2.0536842600
 H         -5.0799451653        0.8858831766       -3.0536886079
 H         -5.4473073376        0.7558958866       -1.3517762184
 C         -3.4217498271        0.2656757544       -1.8890887591
 H         -3.6014085061       -0.7294707968       -2.3132229844
 H         -2.6236932018        0.6943664698       -2.5063325944
 H         -5.0736536428        3.4335633473        0.6683477968
 H         -3.4263274719        3.3307835773        1.2886681984
 H         -5.2910221548        1.0636038894        0.5197996175
 H         -4.5176857596        1.3921001684        2.0633022275
 O         -2.5982636519        0.1645318523        1.8284843333
 C         -1.6136295461       -0.7988456240        1.8748469335
 O         -1.1796006772       -1.0318015439        3.0214540087
 H          1.9050070695       -1.0235068981        1.5705186706
 C          2.0523185901       -1.4182421991        0.5724491957
 C          1.0673243141       -2.2209488565        0.0111392797
 C          1.2645043677       -2.7169990443       -1.2712898757
 C          2.4123085090       -2.3994621154       -1.9765425494
 C          3.3937716450       -1.6022184250       -1.4133731631
 C          3.2124920633       -1.1168031067       -0.1262395188
 N          4.2153847285       -0.2959349535        0.4481252314
 S          4.2374128431        1.2724516765       -0.1416049445
 O          4.5102236092        1.2313776928       -1.5539534584
 O          5.1813531836        1.9954116365        0.6786458246
 C          2.5795172368        1.8507614171        0.1628536793
 C          1.5864355327        1.5076491604       -0.7320165790
 C          0.2748148379        1.8333721295       -0.4302974801
 C         -0.0214939169        2.4853814394        0.7559445902
 C          0.9882008957        2.8279555280        1.6421190274
 C          2.3018949570        2.5009348521        1.3488782568
 H          3.1163092809        2.7428393646        2.0131322001
 H          0.7510320397        3.3357562881        2.5632899803
 H         -1.0466165195        2.7214506724        0.9948825233
 H         -0.5084335225        1.5526294050       -1.1162551271
 H          1.8453397923        0.9933771673       -1.6433532221
 H          4.1577602370       -0.2556139921        1.4570007972
 H          4.2877515383       -1.3357390361       -1.9533533042
 H          2.5460864631       -2.7796249974       -2.9778776635
 H          0.5015766106       -3.3290685266       -1.7233214914
 C         -0.1747175462       -2.5068988046        0.8152357601
 H          0.1097816532       -2.4852010489        1.8791977570
 C         -0.7235478083       -3.9029886438        0.5496475096
 C         -2.0780573970       -4.2940659803        1.0599893763
 C         -1.8302451906       -4.2003611881       -0.4141285592
 H         -1.7725352647       -5.1177486925       -0.9816918124
 H         -2.2682063401       -3.3802814248       -0.9589984123
 H         -2.2029408173       -5.2697368256        1.5047315832
 H         -2.6718525227       -3.5207707816        1.5266076334
 H          0.0563714885       -4.6543199320        0.6310625254
 O         -1.2500407356       -1.3006446351       -1.6825969001
