  62
        -98.93167929
 C          2.2953122195        1.3505051008        0.2846433987
 C          2.3957632196        0.2832183503       -0.6383503208
 C          3.3711260998       -0.7801983793       -0.3145347104
 C          4.0832252399       -0.6962864186        0.8224524395
 C          5.1292646402       -1.6414072982        1.3573986798
 C          6.1618552201       -2.1659463085        0.3476438099
 C          5.9913236403       -3.6501621887        0.0195511407
 H          6.9491359204       -4.0431529187       -0.3285755392
 H          5.7361782606       -4.1820005783        0.9385871810
 C          4.9473207502       -3.9618908895       -1.0513631790
 H          4.8236628404       -5.0468533095       -1.0859625884
 H          5.3252923200       -3.6471174599       -2.0264644792
 C          3.5756850902       -3.3187574396       -0.8359757891
 H          2.8408628202       -3.9083666400       -1.3882170487
 H          3.2930503803       -3.3638023591        0.2152228510
 C          3.4872569998       -1.8717845099       -1.3434142598
 H          4.3388141497       -1.6525937100       -1.9942941701
 H          2.5950426397       -1.7558411303       -1.9668927198
 H          6.1256828099       -1.5700360590       -0.5630360804
 H          7.1527622202       -2.0291182981        0.7837230297
 H          4.6242509804       -2.4809137780        1.8417828403
 H          5.6344201702       -1.0846012577        2.1500711195
 O          3.9082383999        0.3231362018        1.7136205090
 C          3.0154696697        1.3521268515        1.4801269186
 O          2.9478028797        2.1912562420        2.4013965782
 O          1.7106577894        0.2043041597       -1.6897748806
 C          1.3373632093        2.5087156205        0.0659899482
 C         -0.0134882807        1.9905239900       -0.3650487013
 C         -0.6485215909        2.3658794393       -1.5407095514
 C         -1.8944863709        1.8525157389       -1.8570065210
 C         -2.5316477406        0.9596660393       -1.0157976604
 C         -1.9081197404        0.5811756900        0.1662120697
 C         -0.6646195804        1.1037948804        0.4846572392
 H         -0.1772747602        0.8083158309        1.4071153393
 N         -2.5396818701       -0.3388318797        1.0217132803
 S         -4.1375685101       -0.0617982498        1.4544271603
 O         -4.4532453203        1.3479042002        1.4397265497
 O         -4.3097085098       -0.7454857091        2.7180802207
 C         -5.0758244501       -0.9129962306        0.2035216309
 C         -4.8286440599       -2.2577409406        0.0087847416
 C         -5.5550712799       -2.9388635812       -0.9546890280
 C         -6.5130723602       -2.2683832318       -1.7007119982
 C         -6.7521630904       -0.9190456217       -1.4903374988
 C         -6.0280979603       -0.2314752811       -0.5286126993
 H         -6.1760728205        0.8187767390       -0.3337315998
 H         -7.4978249605       -0.4000203822       -2.0708222890
 H         -7.0765106902       -2.8012405323       -2.4503415778
 H         -5.3717107998       -3.9882390813       -1.1207434375
 H         -4.0783801697       -2.7421074402        0.6113144017
 H         -1.9891142499       -0.5851690992        1.8312679303
 H         -3.4986056206        0.5532703390       -1.2635580601
 H         -2.3735680111        2.1472426484       -2.7782217310
 H         -0.1592010512        3.0425154591       -2.2214863018
 H          1.2129525993        2.9631226110        1.0636897780
 C          1.8820461389        3.6038789601       -0.8391099924
 C          3.3565261989        3.8506193903       -0.9495419527
 C          2.5982159188        3.3057898796       -2.1205887524
 H          2.4271695386        3.9570120991       -2.9653144827
 H          2.7328699090        2.2699412395       -2.3873384918
 H          3.7030445487        4.8725264604       -0.9873528133
 H          4.0170244691        3.1865992707       -0.4105013625
 H          1.2502512688        4.4868657300       -0.8266583328
