  62
        -98.94515981
 C          2.0399333960        0.9739095961        0.0524714120
 C          2.7193444333        0.2233329130        1.0406238178
 C          3.3476121052       -1.0233350478        0.5850309451
 C          3.1957644046       -1.4043773725       -0.6967225324
 C          3.8124845991       -2.6301341331       -1.3045848644
 C          5.1876474841       -2.3187366023       -1.9118431109
 C          6.1171609911       -1.5501401594       -0.9726281370
 H          7.0668495804       -1.4150131532       -1.4944355317
 H          5.7018399436       -0.5552706344       -0.7967826179
 C          6.3682157997       -2.2393383560        0.3758153981
 H          7.4355038635       -2.1897337276        0.6011467725
 H          6.0998867059       -3.2942265994        0.3084162397
 C          5.6342562298       -1.6048669554        1.5585613440
 H          5.8256522820       -0.5290268692        1.5737235742
 H          6.0472390625       -2.0242003793        2.4798070101
 C          4.1164666340       -1.8241168618        1.5984790250
 H          3.8944742582       -2.8887205122        1.4972713738
 H          3.7578940631       -1.4911868106        2.5771634819
 H          5.6569026840       -3.2604548016       -2.2021147154
 H          5.0392850606       -1.7201676907       -2.8134976379
 H          3.9059157325       -3.4000475517       -0.5408880285
 H          3.1485962464       -2.9924617222       -2.0915640246
 O          2.4907920369       -0.6841714065       -1.6055726218
 C          1.8967579068        0.5209602240       -1.2597662359
 O          1.2878597408        1.0783674781       -2.1913348333
 H         -0.1142983567        0.3883271574        1.5651071264
 C         -0.7274911815        1.0409536837        0.9545080384
 C         -0.1278563002        2.1106924859        0.2992646454
 C         -0.9241427023        2.9381013277       -0.4798855905
 C         -2.2792147132        2.6843763992       -0.6106296331
 C         -2.8673953452        1.6102249283        0.0313535863
 C         -2.0805985514        0.7819971060        0.8215205236
 N         -2.6748034360       -0.3240886495        1.4734100123
 S         -3.1694646109       -1.5613392251        0.4398472625
 O         -3.2437320239       -2.7441325054        1.2708280212
 O         -2.3163552822       -1.6495553632       -0.7247240415
 C         -4.8141267283       -1.0757620199       -0.0346227776
 C         -5.7829630451       -1.0123807782        0.9481328576
 C         -7.0675134959       -0.6302277347        0.5959999659
 C         -7.3593231193       -0.3220942112       -0.7246977653
 C         -6.3755752133       -0.3932637023       -1.6993713688
 C         -5.0879004288       -0.7737384414       -1.3539537670
 H         -4.2878123890       -0.8372461243       -2.0743132310
 H         -6.6037480683       -0.1528651283       -2.7253152375
 H         -8.3597250242       -0.0245041228       -0.9966699137
 H         -7.8353508590       -0.5733024122        1.3505243673
 H         -5.5122668633       -1.2659287522        1.9594298588
 H         -2.0730348475       -0.7228057175        2.1818688946
 H         -3.9212312684        1.4090148896       -0.0709755019
 H         -2.8850148597        3.3317982613       -1.2258826411
 H         -0.4818524900        3.7731173425       -0.9974380763
 C          1.3640153257        2.2741910042        0.4544170767
 H          1.5847909827        2.3984979355        1.5249180879
 C          1.9391746524        3.4500784115       -0.3039607600
 C          1.8462005907        4.8297436731        0.2741722398
 C          3.1674651624        4.1249070097        0.2261703551
 H          3.9116160745        4.4666308717       -0.4774716406
 H          3.5818903667        3.7483705276        1.1500935975
 H          1.3637641297        4.9365084495        1.2338403982
 H          1.6847758483        5.6600308515       -0.3962489606
 H          1.8563493854        3.3354098453       -1.3785381833
 O          2.7894934651        0.5759311742        2.2503005794
