  62
        -98.93351375
 C         -2.5212060999       -0.7102935997        0.2233813294
 C         -2.9131314202        0.3958506403        1.0148496792
 C         -2.9393068604        1.7139232102        0.3594153690
 C         -2.5452491302        1.8187570901       -0.9231977710
 C         -2.4764434603        3.0145355200       -1.8498152712
 C         -2.5596396007        4.4355191400       -1.2981977914
 C         -1.3702896609        4.8578529104       -0.4364659513
 H         -0.4899026308        4.9435780105       -1.0784540212
 H         -1.5822630211        5.8472025004       -0.0248186615
 C         -1.0107442609        3.9117380707        0.7069018189
 H         -0.1550850610        4.3405241409        1.2363064789
 H         -0.6812947006        2.9517072407        0.3007363491
 C         -2.1187036809        3.6756487906        1.7322426688
 H         -2.4704589912        4.6342816506        2.1185821486
 H         -1.6817995909        3.1183866008        2.5654622889
 C         -3.3315461507        2.8743943403        1.2280789887
 H         -3.8393484907        2.4488066703        2.0985272387
 H         -4.0437863308        3.5144861901        0.7133055585
 H         -3.4911204708        4.5764404599       -0.7578549216
 H         -2.5913336407        5.1022740999       -2.1642416915
 H         -3.2844821202        2.8763515297       -2.5770271013
 H         -1.5391112002        2.8992697900       -2.4041415310
 O         -2.1553006199        0.7275164300       -1.6434424607
 C         -2.0984213397       -0.5443951098       -1.0964148705
 O         -1.6717024594       -1.4103802499       -1.8828836403
 O         -3.2230782603        0.2895728105        2.2327855192
 C         -2.4012829497       -2.0628583496        0.9069749097
 C         -1.0207547795       -2.6054725893        0.6359846000
 C         -0.7586172092       -3.8278840494        0.0338152402
 C          0.5424943809       -4.2009029092       -0.2604053396
 C          1.6051378607       -3.3652111189        0.0308444404
 C          1.3521810104       -2.1503912489        0.6504779502
 C          0.0548496903       -1.7876634591        0.9618321800
 H         -0.1341268500       -0.8247860690        1.4239248898
 N          2.4341481802       -1.2580679186        0.9025492002
 S          2.7191080101       -0.2675556788       -0.4450542299
 O          1.7617793299        0.8201435810       -0.4718838602
 O          2.7905350405       -1.1034855189       -1.6152891798
 C          4.3431734600        0.3614968716       -0.0605000598
 C          5.4050380602       -0.5206179582       -0.1181430395
 C          6.6730228400       -0.0647962579        0.2034668206
 C          6.8569241697        1.2586661022        0.5765790104
 C          5.7815212595        2.1318084920        0.6298167801
 C          4.5096220696        1.6808765317        0.3109298000
 H          3.6444459895        2.3241503615        0.3348388798
 H          5.9268968193        3.1603882021        0.9184795199
 H          7.8449107896        1.6121264625        0.8259593105
 H          7.5118317302       -0.7406868577        0.1627792108
 H          5.2133732804       -1.5366521683       -0.4201973794
 H          2.2118354599       -0.6345459785        1.6699252101
 H          2.6168907408       -3.6262160788       -0.2319993894
 H          0.7275649312       -5.1481692192       -0.7438172194
 H         -1.5762963190       -4.4742249196       -0.2407571998
 H         -2.4704799499       -1.8275287894        1.9828467296
 C         -3.5224433694       -3.0442289799        0.6092210097
 C         -4.8848224395       -2.5572992002        0.2176562694
 C         -4.0365664192       -3.2893308402       -0.7764451503
 H         -4.3193998290       -4.2969761303       -1.0443939702
 H         -3.5851678392       -2.7330942002       -1.5824473304
 H         -5.7479263994       -3.0584314303        0.6292828394
 H         -5.0152720497       -1.4923140902        0.0898374092
 H         -3.4933175594       -3.9019033597        1.2744105198
