  62
        -98.94164256
 C         -1.6939687515       -0.9508727791        0.2123480250
 C         -1.8822537480        0.4467710200        0.0413844109
 C         -3.1489828885        0.8678262792       -0.5693970545
 C         -4.0335124966       -0.0700611777       -0.9534112491
 C         -5.3844928000        0.2115826660       -1.5431024962
 C         -6.4600018541        0.2970460118       -0.4511679624
 C         -6.0821166134        1.2080048485        0.7168454641
 H         -6.9272948547        1.2172443035        1.4085828802
 H         -5.2353984862        0.7700651336        1.2503289694
 C         -5.7358590008        2.6478886575        0.3125668713
 H         -6.2349934554        3.3337832109        1.0003638546
 H         -6.1210636049        2.8547734479       -0.6865305239
 C         -4.2427563810        2.9783542389        0.3589257393
 H         -4.1325989786        4.0625491484        0.2725714877
 H         -3.8331251609        2.6838141698        1.3283332986
 C         -3.3828954322        2.3424727236       -0.7409001095
 H         -3.8230269110        2.5507788507       -1.7182202509
 H         -2.3940057080        2.8082401001       -0.7016737463
 H         -7.3869020370        0.6507600104       -0.9063953695
 H         -6.6358433888       -0.7073664123       -0.0590144247
 H         -5.6373271863       -0.6005446215       -2.2268207163
 H         -5.3439582846        1.1445990163       -2.1018322356
 O         -3.8090501275       -1.3980678544       -0.8021065433
 C         -2.6452553503       -1.8771005720       -0.2157196694
 O         -2.6052751114       -3.1213421396       -0.1476275487
 O         -1.0279084194        1.3035433374        0.3924952931
 C         -0.3914676191       -1.3794481787        0.8654483217
 C          0.6348781533       -1.7891356087       -0.1637756289
 C          0.4648176385       -2.9192783005       -0.9566661978
 C          1.4333898319       -3.2762795708       -1.8765011785
 C          2.5919283696       -2.5307832252       -2.0095615549
 C          2.7694970548       -1.3977606122       -1.2245691944
 C          1.7852332532       -1.0294770038       -0.3181054230
 H          1.9195064929       -0.1402810801        0.2782649133
 N          3.9223926775       -0.6120809620       -1.3480328116
 S          4.5965510396        0.1351650174       -0.0119138180
 O          5.9706121084        0.3799406795       -0.3955127643
 O          4.4017331626       -0.6430710298        1.1888780929
 C          3.7445626640        1.6926237226        0.1062047419
 C          3.1625537228        2.0683316555        1.3000115898
 C          2.5175110898        3.2922347321        1.3762906327
 C          2.4685433804        4.1156347770        0.2626927998
 C          3.0624873963        3.7260735980       -0.9282584556
 C          3.7084604100        2.5035156975       -1.0105934751
 H          4.1834710037        2.1674606849       -1.9172538835
 H          3.0206463904        4.3702766451       -1.7918851146
 H          1.9618721072        5.0658104572        0.3242973474
 H          2.0511294550        3.5946590425        2.3001714764
 H          3.2188656216        1.3953557236        2.1415926003
 H          4.6229620493       -0.9726242596       -1.9787558170
 H          3.3525701585       -2.8208518514       -2.7185645294
 H          1.2906481626       -4.1533582097       -2.4898365622
 H         -0.4359706637       -3.5041199485       -0.8526741216
 H         -0.0109677674       -0.4759178313        1.3614036901
 C         -0.5534685483       -2.4634810025        1.9134769593
 C          0.5690774530       -2.6992008276        2.8779945568
 C         -0.7093651277       -2.0769410390        3.3520267997
 H         -1.3687415761       -2.6633283202        3.9742880350
 H         -0.7055119829       -1.0234209674        3.5912796447
 H          0.7876484296       -3.7137368466        3.1743755065
 H          1.4449319316       -2.0726002367        2.7901898972
 H         -1.1076182297       -3.3248510386        1.5648224361
