  62
        -98.93776667
 C         -1.4595853744       -1.7911365514        0.3704926877
 C         -1.4614066679       -0.7022372416       -0.5312545775
 C         -2.3909321155        0.4022725823       -0.2239700316
 C         -3.1377660406        0.3389099617        0.8929159091
 C         -4.1447860847        1.3351915857        1.4097603068
 C         -3.7370419714        2.8159541467        1.3527618282
 C         -4.5193674764        3.6225138779        0.3145324066
 H         -5.5606686561        3.2940970986        0.3336442537
 H         -4.5057549288        4.6746495070        0.6077562714
 C         -3.9873226102        3.5342482611       -1.1149845376
 H         -3.0528442609        4.0943412025       -1.1870573433
 H         -4.7127272450        4.0262104572       -1.7671488331
 C         -3.7410155498        2.1168069992       -1.6355193476
 H         -3.7603851296        2.1539974721       -2.7266283402
 H         -4.5464894334        1.4513787877       -1.3271632920
 C         -2.3837462528        1.5366759622       -1.2107313740
 H         -1.8628843476        1.1345090067       -2.0849378045
 H         -1.7434221891        2.3318411939       -0.8206264572
 H         -3.9324920927        3.2524165802        2.3337210402
 H         -2.6665471359        2.8985402406        1.1709554422
 H         -5.0850880771        1.1886117265        0.8725847867
 H         -4.3304251795        1.0403566899        2.4451882796
 O         -3.0822313604       -0.7237954857        1.7482437895
 C         -2.2571255925       -1.8084190963        1.5121249613
 O         -2.3121382426       -2.7009749071        2.3833329403
 O         -0.7230005125       -0.6494711094       -1.5480398163
 C         -0.5537688770       -2.9804129375        0.1120722791
 C          0.8751637344       -2.5269969927       -0.0637028583
 C          1.7215917690       -3.0467784649       -1.0342108903
 C          3.0227595025       -2.5879866041       -1.1498151101
 C          3.5087347812       -1.6068117412       -0.3058251687
 C          2.6706650879       -1.0811611672        0.6702609453
 C          1.3721679887       -1.5508810769        0.7911803874
 H          0.7239404089       -1.1422946145        1.5573891895
 N          3.1482143147       -0.0844633801        1.5442254440
 S          3.8129564684        1.3124763126        0.9066372846
 O          5.0243162325        0.9757738173        0.2024273800
 O          3.9565075303        2.2054523163        2.0341034079
 C          2.6098891659        1.9698871521       -0.2336637744
 C          2.5227927613        1.4455749759       -1.5077378202
 C          1.5717583039        1.9555153061       -2.3764777713
 C          0.7362637496        2.9807795365       -1.9634962454
 C          0.8355583804        3.4956145192       -0.6797916101
 C          1.7753500265        2.9815399754        0.1981715379
 H          1.8902135133        3.3558456678        1.2030514081
 H          0.1867443913        4.2962452178       -0.3600774236
 H          0.0025402613        3.3788442645       -2.6467894023
 H          1.4837417116        1.5477315114       -3.3701427019
 H          3.1957667570        0.6575693286       -1.8022529592
 H          2.4880851599        0.1587058105        2.2688912028
 H          4.5158071666       -1.2317910236       -0.3921464366
 H          3.6683476841       -2.9999174342       -1.9106707085
 H          1.3617243380       -3.8087114115       -1.7057889778
 H         -0.6067778410       -3.6081407380        1.0140900964
 C         -1.0785992210       -3.7767356018       -1.0658367225
 C         -0.8852538611       -5.2613649357       -1.1270745636
 C         -2.2445252313       -4.6932067790       -0.8534753866
 H         -2.9980043800       -4.7581078951       -1.6240456971
 H         -2.6397834783       -4.7652704713        0.1496575908
 H         -0.7084763332       -5.7199969610       -2.0883623762
 H         -0.3609783919       -5.7328760897       -0.3095613558
 H         -1.0458917066       -3.2154028416       -1.9926368288
