  62
        -98.93080369
 C         -0.3709940999       -1.5865798201        0.3986740801
 C         -1.2415772101       -0.6771930596        1.0401283892
 C         -2.3260586696       -0.1268004698        0.2173972584
 C         -2.4016015791       -0.4571956606       -1.0843967214
 C         -3.3868274885        0.0766466291       -2.0916391822
 C         -4.8679992987       -0.2825896205       -1.8644594527
 C         -5.6604826088        0.7692431801       -1.0783861436
 H         -5.1678533586        1.7356422699       -1.1931284340
 H         -6.6517809086        0.8679000500       -1.5253346041
 C         -5.8671464196        0.4716559109        0.4095718964
 H         -6.6575165698       -0.2745732189        0.5169238965
 H         -6.2138756496        1.3894604213        0.8890867758
 C         -4.6414546600       -0.0481820089        1.1605932073
 H         -4.8662045205       -0.0340728082        2.2288366272
 H         -4.4639385301       -1.0930176990        0.8955507780
 C         -3.3436243298        0.7412069107        0.9001917374
 H         -3.5476807293        1.6346886805        0.3109271768
 H         -2.8985462501        1.0427895912        1.8503741675
 H         -5.3215452782       -0.3837812610       -2.8517172228
 H         -4.9346671991       -1.2551845203       -1.3777079422
 H         -3.0629167081       -0.3285257315       -3.0527388518
 H         -3.2781082783        1.1631494590       -2.1411242528
 O         -1.5280506890       -1.3186298210       -1.6711168906
 C         -0.4925168894       -1.9011100308       -0.9558812198
 O          0.2243989108       -2.6656851613       -1.6264598290
 O         -1.1096479406       -0.3276296189        2.2450646191
 C          0.7938426396       -2.1615133798        1.1979168010
 C          2.0568725500       -1.8404993205        0.4358794314
 C          3.0239994800       -2.7112748610       -0.0465042877
 C          4.0925800505       -2.2356916716       -0.7908230675
 C          4.2125957709       -0.8956090818       -1.1008950082
 C          3.2531668608       -0.0106906413       -0.6222220191
 C          2.2214098504       -0.4822705207        0.1665299507
 H          1.4869604503        0.2183820597        0.5385759699
 N          3.3050405612        1.3617244585       -0.9162111199
 S          1.8664164215        2.1586829386       -1.2447736510
 O          0.8854420216        1.2911409684       -1.8546477009
 O          2.2683927921        3.3088345881       -2.0306715514
 C          1.3001270409        2.7363884596        0.3399223284
 C          2.2163069606        3.2906770799        1.2121347385
 C          1.7678411201        3.7830462307        2.4269145781
 C          0.4187768600        3.7224539811        2.7424566075
 C         -0.4884645197        3.1695448408        1.8526907574
 C         -0.0455653993        2.6694391000        0.6387555079
 H         -0.7147240490        2.2098806597       -0.0729048422
 H         -1.5364610799        3.1169261411        2.0992441869
 H          0.0699937196        4.1056925617        3.6884146971
 H          2.4699936499        4.2120015809        3.1235501981
 H          3.2552558107        3.3218663396        0.9297200590
 H          4.0336422615        1.6291802180       -1.5626041597
 H          5.0258476012       -0.5373032423       -1.7134683980
 H          4.8301716005       -2.9331865519       -1.1585635067
 H          2.9544066098       -3.7707330209        0.1182351129
 H          0.8194112193       -1.5534105793        2.1186156106
 C          0.4429668991       -3.5707650895        1.6467022716
 C          0.6306370793       -4.8137518000        0.8348557524
 C          1.4219798087       -4.6139544494        2.0946724827
 H          1.1542850582       -5.2117984389        2.9535645029
 H          2.4755521488       -4.3984241297        2.0317391130
 H         -0.1671435309       -5.5428446299        0.8445379325
 H          1.1051121397       -4.7198414107       -0.1282450574
 H         -0.4819474011       -3.5281109590        2.2186858212
