  62
        -98.93653688
 C         -2.0377626100       -1.4045424690        0.2976585510
 C         -2.0783441597       -0.2389568583        1.1053758901
 C         -3.0752895194        0.7824636217        0.7517036892
 C         -3.8813310494        0.5733646311       -0.3030727006
 C         -4.9936954592        1.4496373410       -0.8216614714
 C         -4.7231199187        2.9587263109       -0.9045636626
 C         -3.2656423586        3.3430093902       -1.1988722229
 H         -2.7011017088        2.4612312998       -1.5069123221
 H         -3.2477005184        4.0491294895       -2.0312180834
 C         -2.5706782784        4.0041956509       -0.0061285134
 H         -1.7164791583        4.5767097704       -0.3747725838
 H         -3.2637942582        4.7128752015        0.4524245660
 C         -2.0515239687        3.0468175817        1.0661879574
 H         -1.6934255486        3.6451192222        1.9072523369
 H         -1.1949861589        2.4855046711        0.6833517779
 C         -3.0748291391        2.0271323924        1.5916298882
 H         -2.7574692892        1.7174651731        2.5909966485
 H         -4.0683650289        2.4634506227        1.6626432878
 H         -5.3694780686        3.3520221504       -1.6910592729
 H         -5.0348352186        3.4356221217        0.0237777870
 H         -5.2190944792        1.0621486503       -1.8181089511
 H         -5.8788479892        1.2779259218       -0.2022930413
 O         -3.7974265297       -0.5515936095       -1.0644827397
 C         -2.8755519300       -1.5553526096       -0.8066605489
 O         -2.9232615003       -2.4922816303       -1.6269380981
 H          1.3752859099       -1.5818528589        1.5751230412
 C          1.4009282599       -1.7745934498        0.5111535314
 C          0.2568321397       -2.2385559600       -0.1220970383
 C          0.2951287097       -2.4565645811       -1.4952304381
 C          1.4568167098       -2.2198943920       -2.2077284383
 C          2.6003928699       -1.7678484918       -1.5716535886
 C          2.5695077200       -1.5375249207       -0.2023927088
 N          3.7283703901       -1.0964434305        0.4638919709
 S          4.5326619105        0.2748024088       -0.0532452802
 O          4.9704527405        0.0851628376       -1.4122482800
 O          5.5660959005        0.4978594193        0.9306471397
 C          3.3339789909        1.5929252793        0.0257578087
 C          2.4173087509        1.7359823687       -0.9969266414
 C          1.4712914512        2.7448206790       -0.9085573723
 C          1.4595410914        3.5882212799        0.1917988071
 C          2.3829230914        3.4272253405        1.2128821072
 C          3.3273528711        2.4171225801        1.1334267081
 H          4.0686793810        2.2604148305        1.9004598782
 H          2.3677957015        4.0834299212        2.0680624267
 H          0.7254726417        4.3758670502        0.2546663064
 H          0.7461355213        2.8682933986       -1.6975022224
 H          2.4601844108        1.0677213280       -1.8417076309
 H          3.6248208300       -1.0656668397        1.4682346009
 H          3.5098255900       -1.5779346925       -2.1183172187
 H          1.4747628698       -2.3929303429       -3.2734097481
 H         -0.5977650404       -2.7934033712       -1.9992812478
 C         -1.0062469203       -2.4542205090        0.6765015219
 H         -0.7703915203       -2.2547729882        1.7307063817
 C         -1.5039291608       -3.8801132789        0.5628929830
 C         -0.8121618311       -4.9515294285        1.3493099039
 C         -2.1910447310       -4.5093545678        1.7358965035
 H         -3.0203469112       -5.1749053177        1.5494737440
 H         -2.3039678908       -3.9128683970        2.6296368730
 H         -0.6911178614       -5.9241641589        0.8979635747
 H          0.0108071690       -4.6560713782        1.9826706937
 H         -1.8732197508       -4.1362808096       -0.4207825468
 O         -1.3180696797       -0.0674596177        2.0958374299
