  62
        -98.93663621
 C          2.2057799510        1.3793198655        0.4255277627
 C          2.3909808255        0.5401737646       -0.6970285045
 C          3.1990475684       -0.6772207013       -0.4848469624
 C          3.6518980319       -0.9559987380        0.7503736391
 C          4.4885448127       -2.1229664300        1.2107189150
 C          4.0858317025       -3.5088399368        0.6829477229
 C          5.0821085269       -4.0891423239       -0.3224470741
 H          6.0932518126       -3.8513776556        0.0143793197
 H          4.9850868338       -5.1770576868       -0.3210425210
 C          4.9036387379       -3.6117444834       -1.7625247387
 H          4.0001301612       -4.0598765794       -2.1818321292
 H          5.7512674511       -3.9854292067       -2.3417192500
 C          4.8167626372       -2.0949824134       -1.9432859243
 H          5.0987400733       -1.8655234033       -2.9729612829
 H          5.5342570381       -1.5910990226       -1.2968057731
 C          3.4092083897       -1.5262157316       -1.7086889761
 H          3.1300855376       -0.8771260112       -2.5447054855
 H          2.6720474962       -2.3350746658       -1.7032258701
 H          4.0340110912       -4.1876971129        1.5359235821
 H          3.0879622854       -3.4647221933        0.2478971919
 H          5.5329252780       -1.9205545714        0.9607228070
 H          4.4205667294       -2.1073088154        2.3009325703
 O          3.4044125622       -0.1398173764        1.8162425656
 C          2.6834864856        1.0323705764        1.6873800632
 O          2.5290819847        1.6631340452        2.7542028220
 O          1.9147091841        0.7934995387       -1.8340722959
 C          1.3960301640        2.6595575770        0.3023384868
 C         -0.0274172876        2.3006493399       -0.0505414555
 C         -0.6948887728        2.7758469250       -1.1703660026
 C         -1.9869808463        2.3586413605       -1.4431249002
 C         -2.6401883792        1.4715848382       -0.6076133602
 C         -1.9838494709        0.9973575302        0.5211691767
 C         -0.6920650736        1.4163605995        0.7915557583
 H         -0.1769632833        1.0403633150        1.6683315346
 N         -2.6455775223        0.0948290138        1.3817317771
 S         -3.0639082228       -1.3897293293        0.7046565513
 O         -3.1661747524       -2.3020210625        1.8236071882
 O         -2.1492449923       -1.7669866904       -0.3493393528
 C         -4.6891453883       -1.1043023431        0.0370561363
 C         -5.6964123116       -0.7416795173        0.9100107697
 C         -6.9672016053       -0.5138334863        0.4066818884
 C         -7.2080519044       -0.6545541321       -0.9521232729
 C         -6.1867284327       -1.0230883847       -1.8144698731
 C         -4.9126006696       -1.2512247263       -1.3178125131
 H         -4.0851786982       -1.5330372347       -1.9493639313
 H         -6.3756861551       -1.1325342666       -2.8702746566
 H         -8.1978589719       -0.4762607836       -1.3416350665
 H         -7.7641157930       -0.2276634482        1.0739255784
 H         -5.4663402192       -0.6494282187        1.9582655454
 H         -2.1395138814       -0.0663687058        2.2419098390
 H         -3.6448572462        1.1436846424       -0.8190120582
 H         -2.4915554842        2.7293417978       -2.3221872572
 H         -0.1993539497        3.4608989114       -1.8379592051
 H          1.3925569937        3.1110322859        1.3050928338
 C          2.0486307316        3.6221565229       -0.6655619885
 C          1.7821429017        5.0921113022       -0.5510482769
 C          3.1199336198        4.5403875891       -0.1621885838
 H          3.9679211767        4.7406003389       -0.7996469858
 H          3.3678250116        4.4863715681        0.8881575942
 H          1.7137177935        5.6760223959       -1.4562015048
 H          1.1212267775        5.4195999955        0.2370741296
 H          2.1786531688        3.1981734116       -1.6539660063
