  62
        -98.94790866
 C         -0.9759403598       -0.9971238792        0.7101573803
 C         -1.5860104100       -0.8867377001       -0.5624149996
 C         -2.2818094804        0.3786094595       -0.8257998202
 C         -2.2503367806        1.3633068801        0.0893564692
 C         -2.8758021810        2.7250738698       -0.0520287115
 C         -4.3681119210        2.7688414495        0.3047493087
 C         -5.3012840109        2.1128072087       -0.7134989308
 H         -6.3193449410        2.4072467385       -0.4510491408
 H         -5.0921298212        2.5128420282       -1.7062036210
 C         -5.2242404805        0.5801022287       -0.7480064499
 H         -4.7388202402        0.2188037094        0.1613354902
 H         -6.2343383903        0.1647067384       -0.7596535896
 C         -4.4862177405        0.0103033282       -1.9596122297
 H         -5.0344709307        0.2544123576       -2.8723013598
 H         -4.4580179701       -1.0781041717       -1.8644525891
 C         -3.0426812306        0.5086917386       -2.1097754502
 H         -2.5359734906       -0.1092128517       -2.8556625099
 H         -3.0324641810        1.5426129084       -2.4556880308
 H         -4.5066370307        2.2988534301        1.2809700790
 H         -4.6493818913        3.8203234195        0.3979278982
 H         -2.3400519211        3.3875108103        0.6317112581
 H         -2.7297694513        3.0887882193       -1.0700626517
 O         -1.6041839004        1.2381790809        1.2796461092
 C         -0.9584715000        0.0591402313        1.6193716697
 O         -0.4088409398        0.0792362421        2.7394019597
 H          1.4549455700       -0.3595664787        0.2919125996
 C          1.6990944302       -1.2981695189       -0.1841428099
 C          0.9402981205       -2.4237113590        0.1109001509
 C          1.2761890508       -3.6273274592       -0.4939530385
 C          2.3256526007       -3.6849245894       -1.3955180486
 C          3.0474912303       -2.5513291494       -1.7212680994
 C          2.7273480301       -1.3444546891       -1.1091817400
 N          3.4384010897       -0.1684871391       -1.3922469507
 S          2.6292200792        1.2966634507       -1.4158272215
 O          1.2823564392        1.1680921800       -1.9221532112
 O          3.5050786289        2.1714416305       -2.1694171721
 C          2.6106810993        1.8317077616        0.2808889382
 C          1.4732945592        2.4364669015        0.7764811381
 C          1.4608291893        2.8704601423        2.0918542878
 C          2.5853322094        2.6974126231        2.8830787878
 C          3.7240750695        2.0969431731        2.3678289579
 C          3.7420801795        1.6597982124        1.0532242682
 H          4.6058058795        1.1832035324        0.6205180983
 H          4.5952907397        1.9637958037        2.9888612379
 H          2.5691726795        3.0290212436        3.9092389176
 H          0.5696906592        3.3241290722        2.4949860177
 H          0.6138412891        2.5340248809        0.1305416581
 H          4.1140721196       -0.2418490393       -2.1389470008
 H          3.8477700502       -2.5944678696       -2.4442166894
 H          2.5739035109       -4.6245837796       -1.8653823681
 H          0.7100049811       -4.5166864093       -0.2707554079
 C         -0.2083873694       -2.2551860188        1.0766217709
 H          0.2105805207       -2.0759113081        2.0778771608
 C         -1.1330736590       -3.4521219890        1.1378586618
 C         -0.8265211985       -4.5973447884        2.0542747524
 C         -1.9571553588       -3.6664045986        2.3706932620
 H         -2.9697421987       -4.0237962489        2.2583433823
 H         -1.8304009289       -2.9614993181        3.1796910716
 H          0.0665812915       -4.5303512278        2.6568262522
 H         -1.0656088083       -5.5979899787        1.7271525829
 H         -1.5969915591       -3.6677707597        0.1823691119
 O         -1.5566163599       -1.7960441406       -1.4325586591
