  62
        -98.94268002
 C         -0.9309034506       -1.3094752500       -0.4116614806
 C         -1.8768473211       -1.4290689794        0.6396366590
 C         -2.8461586108       -0.3360628189        0.7800237283
 C         -2.7782893499        0.7087154908       -0.0644905820
 C         -3.7492753994        1.8523728812       -0.0936528127
 C         -4.9189722791        1.5617607915       -1.0451307631
 C         -5.5692815098        0.1950100918       -0.8313530131
 H         -6.3989300295        0.1151736520       -1.5373370134
 H         -4.8512413400       -0.5864066086       -1.0907639826
 C         -6.0857082105       -0.0462429076        0.5938940767
 H         -7.0834359707       -0.4864794472        0.5356831864
 H         -6.1816757904        0.9044934826        1.1193125465
 C         -5.2253856813       -0.9994998178        1.4252526474
 H         -5.0518325415       -1.9210530880        0.8638175977
 H         -5.7854149618       -1.2663818473        2.3255321772
 C         -3.8672949413       -0.4479523082        1.8770030578
 H         -4.0081070011        0.5154626720        2.3707777675
 H         -3.4495525219       -1.1505071682        2.6039396982
 H         -5.6685511089        2.3453231618       -0.9202986037
 H         -4.5487092287        1.6059226411       -2.0719819530
 H         -4.1216495798        2.0326540216        0.9126643971
 H         -3.2235652989        2.7399899709       -0.4461218327
 O         -1.8384702195        0.8099535002       -1.0351160916
 C         -0.8878656998       -0.1860447603       -1.2393460709
 O         -0.1034464693        0.0670128692       -2.1704500406
 O         -1.9128400119       -2.4194339292        1.4190440492
 C          0.0570959190       -2.4536718305       -0.5524713099
 C          1.2529714686       -2.2469394208        0.3420417006
 C          1.7507190479       -3.2879369108        1.1174203811
 C          2.8549112276       -3.0936821410        1.9278900715
 C          3.4847541681       -1.8633911613        1.9739310015
 C          2.9891711989       -0.8127229013        1.2089067110
 C          1.8750593791       -1.0084776410        0.4056355705
 H          1.4974578597       -0.1929187310       -0.1912069498
 N          3.5802751294        0.4540562485        1.2678226409
 S          3.5210906204        1.5010616782       -0.0330515894
 O          3.6880686506        0.8047455178       -1.2862498091
 O          4.5364376307        2.4895929978        0.2711457908
 C          1.9285082807        2.2841030389        0.0851553797
 C          1.2587820613        2.6381532189       -1.0679803907
 C          0.0581745416        3.3224954894       -0.9603365214
 C         -0.4464003989        3.6384798999        0.2906429283
 C          0.2344341005        3.2671567399        1.4399518987
 C          1.4372089702        2.5882276294        1.3396375894
 H          1.9949520097        2.2873279594        2.2110074398
 H         -0.1677855899        3.5063431304        2.4113431885
 H         -1.3769221687        4.1781791904        0.3729981978
 H         -0.4788630679        3.5945080894       -1.8548604117
 H          1.6703584616        2.3532549985       -2.0230454704
 H          4.4452253692        0.5150340783        1.7836657413
 H          4.3491796279       -1.7103600115        2.6016505718
 H          3.2321421870       -3.9083752610        2.5270287419
 H          1.2579605375       -4.2486456806        1.0912264411
 H         -0.4784398316       -3.3407980502       -0.1760943199
 C          0.4550020995       -2.7483058710       -1.9910768497
 C          1.7454746899       -2.3023262317       -2.6026585492
 C          1.5293423892       -3.7515560315       -2.2926164189
 H          1.3793932693       -4.4380004217       -3.1122729488
 H          2.0727401186       -4.1689834516       -1.4584794886
 H          1.7214677305       -1.9787196320       -3.6323074193
 H          2.4361280199       -1.7325537718       -1.9995811990
 H         -0.4073694902       -2.7479615008       -2.6510229500
