  62
        -98.94124653
 C         -2.0204972216       -1.2217076473        0.1237043249
 C         -2.8063985026       -0.6558821805        1.1599497978
 C         -3.9903211267        0.0997878924        0.7373990397
 C         -4.2578154702        0.2396000713       -0.5735098868
 C         -5.4430697210        0.9536467512       -1.1645967961
 C         -5.2563818303        2.4711377896       -1.2983449016
 C         -5.2980442678        3.2499735596        0.0170556771
 H         -5.3721126683        4.3086344305       -0.2395785284
 H         -6.2015668361        2.9845205209        0.5668776023
 C         -4.0685861941        3.0445818704        0.9131202304
 H         -3.2549410789        2.6182929380        0.3210916793
 H         -3.7210067426        4.0123992864        1.2820679940
 C         -4.3144525772        2.1558274774        2.1326491241
 H         -5.0330730211        2.6390176626        2.7982405177
 H         -3.3717850645        2.0500286787        2.6757990875
 C         -4.8282006224        0.7494582793        1.7971334574
 H         -4.7601855260        0.1361323135        2.6990201781
 H         -5.8706759785        0.7952546249        1.4827787120
 H         -4.3082399172        2.6632864348       -1.8063174123
 H         -6.0579449918        2.8425543796       -1.9409669535
 H         -5.5905931032        0.5364876187       -2.1631209582
 H         -6.3309892172        0.7465241969       -0.5664674664
 O         -3.4599274730       -0.2847352683       -1.5394356700
 C         -2.3111712689       -1.0037912436       -1.2243828872
 O         -1.6661697491       -1.3767153633       -2.2205736421
 O         -2.5281713775       -0.7751930103        2.3832112182
 C         -0.7859014914       -2.0071801308        0.5296208970
 C          0.4135636087       -1.5210254434       -0.2441294392
 C          1.1694306571       -2.3256244637       -1.0852132842
 C          2.2454318059       -1.7978219780       -1.7783212331
 C          2.5954956006       -0.4676790844       -1.6431999740
 C          1.8544350134        0.3432766493       -0.7921013099
 C          0.7809502699       -0.1884714661       -0.0950461691
 H          0.1985895044        0.4468516830        0.5615700420
 N          2.2069635628        1.6938323518       -0.6377859795
 S          3.8263325013        2.0874440685       -0.4993441556
 O          3.8486483214        3.3239706733        0.2505811573
 O          4.4311497451        2.1351219615       -1.8071874316
 C          4.5540190743        0.7659014408        0.4534521386
 C          4.0704728778        0.5392417486        1.7269272656
 C          4.6028106682       -0.5010725981        2.4706992863
 C          5.6049946672       -1.2931199239        1.9310910549
 C          6.0839112460       -1.0490192893        0.6535721139
 C          5.5535360867       -0.0108956554       -0.0956995943
 H          5.8947546939        0.2123471307       -1.0934194466
 H          6.8647763117       -1.6648211306        0.2374664571
 H          6.0148998049       -2.1042395874        2.5118292410
 H          4.2319997124       -0.6914952793        3.4650978933
 H          3.2946982638        1.1767498403        2.1201934018
 H          1.6439676520        2.1962359101        0.0316789810
 H          3.4152487396       -0.0385855752       -2.1960824464
 H          2.8151375274       -2.4307972756       -2.4412985637
 H          0.8987911980       -3.3592197109       -1.2223019832
 H         -0.6343623942       -1.7384838703        1.5887923867
 C         -0.9605205993       -3.5176898376        0.4937149942
 C         -2.3076468491       -4.1427393053        0.6958999683
 C         -1.6350721331       -4.2282485611       -0.6397759451
 H         -1.2392934253       -5.1838254109       -0.9518079095
 H         -2.0171753020       -3.6292549832       -1.4510316928
 H         -2.3745267648       -5.0358594040        1.2988727090
 H         -3.1562586987       -3.4818682567        0.7989777283
 H         -0.1223412002       -4.0298760180        0.9561052391
