  62
        -98.93617868
 C         -0.9633659669       -2.0086064380       -0.5130753014
 C         -1.3045304195       -0.7136769151       -0.9682014010
 C         -2.6625548815       -0.2292018816       -0.6299959643
 C         -3.4686582265       -1.0050403710        0.1161964899
 C         -4.8447039602       -0.6883526427        0.6380206291
 C         -4.8139601836        0.2854680013        1.8278902782
 C         -3.8627367922        1.4693683799        1.6696248457
 H         -3.8511265611        2.0117725651        2.6186498299
 H         -2.8511289353        1.0974648021        1.4964894795
 C         -4.2354248146        2.4590332704        0.5687896917
 H         -5.2315196005        2.8596779425        0.7701026498
 H         -3.5250541460        3.2866590664        0.6239771267
 C         -4.2131606800        1.9078860309       -0.8580047491
 H         -4.2565669253        2.7628218375       -1.5388647744
 H         -5.0980954767        1.3104580002       -1.0603043042
 C         -2.9526812310        1.1289898250       -1.2209557382
 H         -2.9349835798        0.9852112079       -2.3082342679
 H         -2.0747486118        1.7430791984       -0.9963483784
 H         -4.5027339358       -0.2752938926        2.7127521392
 H         -5.8280951946        0.6501710639        2.0002324579
 H         -5.2785160435       -1.6331306078        0.9730902856
 H         -5.4692225517       -0.3042020041       -0.1629077891
 O         -3.0843395866       -2.2373880508        0.5589834940
 C         -1.8512833946       -2.7705355306        0.2504251836
 O         -1.6604361780       -3.9191933605        0.7003360347
 O         -0.5329058696        0.0291933589       -1.6270424006
 C          0.3784307245       -2.6657108567       -0.7952175908
 C          1.3769690926       -2.2841017970        0.2659972601
 C          2.0011957580       -3.2621707679        1.0318627035
 C          2.8929684220       -2.9134574537        2.0301148210
 C          3.1955064897       -1.5846547154        2.2649746357
 C          2.5790971350       -0.5990624996        1.5028090272
 C          1.6640280695       -0.9494663704        0.5212716759
 H          1.1775482306       -0.1778424382       -0.0555340703
 N          2.8648343574        0.7602496405        1.7104395842
 S          3.1921413894        1.7059614337        0.3614658707
 O          3.7312463088        0.9087140273       -0.7146851609
 O          4.0586579378        2.7555881896        0.8617239979
 C          1.6457712076        2.4519258330       -0.0948199883
 C          0.8483540812        2.9719667982        0.9052041436
 C         -0.3065724946        3.6498938924        0.5529811378
 C         -0.6356634818        3.8037845819       -0.7858338242
 C          0.1739703266        3.2704784682       -1.7764184268
 C          1.3265672522        2.5848245520       -1.4300339062
 H          1.9752837898        2.1416926970       -2.1681976267
 H         -0.0923510426        3.3757290006       -2.8156500681
 H         -1.5305269430        4.3411961948       -1.0600985537
 H         -0.9450555402        4.0560801561        1.3215456494
 H          1.1403242989        2.8371158278        1.9336490026
 H          3.5376114503        0.9378859506        2.4431287332
 H          3.9009441011       -1.3082429045        3.0343320785
 H          3.3644542707       -3.6824490444        2.6231511159
 H          1.7681180180       -4.3013280296        0.8504709472
 H          0.1907390405       -3.7469378133       -0.6943716960
 C          0.8746813966       -2.4342007156       -2.2153955910
 C          2.0470256037       -1.5797131029       -2.5820002570
 C          2.1558189731       -3.0709437074       -2.6684839008
 H          2.1911642612       -3.5365221518       -3.6419925987
 H          2.7516438122       -3.5698757111       -1.9184078097
 H          1.9748879076       -1.0149766097       -3.4997930361
 H          2.5942883923       -1.0626862870       -1.8090283313
 H          0.0552774524       -2.4415050636       -2.9279086197
