  62
        -98.94593567
 C          1.2143370356        0.9228823107       -0.5021588549
 C          2.3389467960        1.2245143336        0.3089478462
 C          3.1287738560        0.0852350206        0.7899424608
 C          2.7316973032       -1.1621368290        0.4806181455
 C          3.4591573858       -2.4159156965        0.8703388584
 C          4.4712476302       -2.8318811057       -0.2064833740
 C          5.3820480111       -1.6945746491       -0.6688836504
 H          6.0724512974       -2.1100871465       -1.4059948886
 H          4.7786398611       -0.9415287973       -1.1806135968
 C          6.1800622072       -1.0227945638        0.4572136041
 H          6.1995913432       -1.6699606321        1.3348297134
 H          7.2126919097       -0.8938035670        0.1262430879
 C          5.6659095498        0.3604576009        0.8605686240
 H          5.5552930539        0.9842869998       -0.0298589295
 H          6.4192594607        0.8306788962        1.4982086595
 C          4.3390507672        0.3818646240        1.6303331271
 H          4.3942468658       -0.3020449310        2.4802194495
 H          4.1936674925        1.3953912095        2.0158449208
 H          5.0776891438       -3.6492959543        0.1879120729
 H          3.9205771811       -3.2037511159       -1.0734380497
 H          3.9672311721       -2.2526372056        1.8190277722
 H          2.7244431435       -3.2130256479        0.9977829166
 O          1.6366456568       -1.4184490303       -0.2742216308
 C          0.8495196065       -0.3942836255       -0.7848122482
 O         -0.1103084474       -0.8061845973       -1.4646433726
 H         -1.5420060497        0.4024607067       -0.1809505952
 C         -1.6406304086        1.3682368484        0.2868743242
 C         -0.7383046457        2.3764581008       -0.0200426235
 C         -0.8873130936        3.6157852568        0.5908420224
 C         -1.9077996723        3.8323517811        1.5000475798
 C         -2.7803001305        2.8125205782        1.8344093235
 C         -2.6381852629        1.5694824769        1.2278595147
 N         -3.4961060135        0.5053654987        1.5405375967
 S         -2.8856594492       -1.0553666319        1.5859986876
 O         -3.8210876924       -1.7749260467        2.4299071320
 O         -1.5092629171       -1.0798496583        2.0277647186
 C         -3.0526251396       -1.6711979403       -0.0738804065
 C         -4.0568909748       -1.1777396855       -0.8822652367
 C         -4.2100981085       -1.7060807525       -2.1535547133
 C         -3.3674979944       -2.7172849426       -2.5887755291
 C         -2.3686716509       -3.2049168961       -1.7620181109
 C         -2.2070321439       -2.6779345721       -0.4910146842
 H         -1.4286163252       -3.0154257770        0.1751353498
 H         -1.7063024854       -3.9842356460       -2.1033097804
 H         -3.4856550091       -3.1249563470       -3.5805910301
 H         -4.9827964925       -1.3248793180       -2.8019208507
 H         -4.6890759851       -0.3864121518       -0.5148709317
 H         -4.1439443671        0.6788361235        2.2953387456
 H         -3.5601743666        2.9712476000        2.5635663169
 H         -2.0135070938        4.7990409535        1.9685914123
 H         -0.1848209340        4.4045921387        0.3658045210
 C          0.3944201273        2.1092788871       -0.9828473152
 H          1.0765497406        2.9697142495       -0.9412531173
 C         -0.1266966695        1.9762022327       -2.3997969221
 C         -0.4677736154        3.2168623744       -3.1676324523
 C          0.7374542425        2.4095737374       -3.5442240254
 H          0.7115771616        1.8307787667       -4.4550009563
 H          1.7132466739        2.8100349460       -3.3099841565
 H         -1.3253691488        3.1959003947       -3.8219279585
 H         -0.3078068222        4.1672633201       -2.6815319082
 H         -0.7479800284        1.1029572919       -2.5479529209
 O          2.6719531860        2.4033637592        0.6103733266
