  62
        -98.92996439
 C         -2.2191954582       -0.2259430191        0.4429138586
 C         -3.3372318013       -0.7740558527       -0.2306048876
 C         -4.4570473718        0.1500367747       -0.5057936300
 C         -4.3658840456        1.4401195873       -0.1371127401
 C         -5.3181592379        2.6026221568       -0.3272755444
 C         -6.7756910027        2.3647888560       -0.7148219868
 C         -7.6162745646        1.6627294411        0.3509293175
 H         -7.7437559732        2.3426444450        1.1971111198
 H         -8.6048464644        1.4664369105       -0.0698843235
 C         -7.0391529215        0.3571246728        0.8923425719
 H         -6.1011486673        0.5592147902        1.4138730934
 H         -7.7402578888       -0.0358099470        1.6338112437
 C         -6.8028957097       -0.7352296093       -0.1489220733
 H         -6.5513642736       -1.6528212091        0.3895837015
 H         -7.7236375195       -0.9166771671       -0.7065390549
 C         -5.6673225989       -0.4623321146       -1.1507767131
 H         -5.3425348731       -1.4226279740       -1.5614781285
 H         -6.0094744406        0.1500829524       -1.9813491241
 H         -6.8326832241        1.8289083447       -1.6575734118
 H         -7.2156844939        3.3513336978       -0.8843546839
 H         -5.2847023412        3.1677327017        0.6096544546
 H         -4.8575461747        3.2424323531       -1.0882276919
 O         -3.2525957827        1.9303919018        0.4863012097
 C         -2.1759891177        1.1228711463        0.7992618071
 O         -1.2528073738        1.7143964223        1.3973910527
 H          1.6456411198       -0.5033547841        0.9743689796
 C          1.3432121644       -0.7831042914       -0.0236000335
 C          0.0136337229       -1.0795960857       -0.2866548676
 C         -0.3553058627       -1.4156888544       -1.5856496301
 C          0.5900067127       -1.4463509269       -2.5941548389
 C          1.9139824063       -1.1440867371       -2.3295584585
 C          2.2952786503       -0.8153734807       -1.0334772041
 N          3.6448722213       -0.5597462798       -0.7358555798
 S          4.0416780990        0.5695093302        0.4543504906
 O          3.8107969197       -0.0207180806        1.7486285524
 O          3.3837035139        1.8291651168        0.1883232989
 C          5.7959460114        0.7113692474        0.1685745341
 C          6.6205758258       -0.3001684095        0.6243202443
 C          7.9826335893       -0.2125564504        0.3855614732
 C          8.4952295250        0.8791119743       -0.2998825198
 C          7.6558563438        1.8876398163       -0.7483800439
 C          6.2918926268        1.8051886156       -0.5147885729
 H          5.6016986316        2.5682528224       -0.8374117938
 H          8.0573991504        2.7369287402       -1.2772894906
 H          9.5559858424        0.9456674985       -0.4831965111
 H          8.6387123053       -0.9931663570        0.7353655737
 H          6.1783410438       -1.1231586092        1.1609224000
 H          4.2036292893       -0.4177149069       -1.5668200594
 H          2.6490195863       -1.1665327535       -3.1197506927
 H          0.2917553818       -1.7056780929       -3.5988850941
 H         -1.3864907563       -1.6576268001       -1.7922454610
 C         -0.9970402775       -1.0410044503        0.8312066542
 H         -0.5359914065       -0.4865256109        1.6654808679
 C         -1.3484623703       -2.4285978856        1.3538780971
 C         -1.0274064099       -3.6950658310        0.6250170729
 C         -0.2597908624       -3.3298036378        1.8574340892
 H         -0.4305691355       -3.8905850559        2.7639869505
 H          0.7583218304       -2.9901458104        1.7337364795
 H         -1.7485480256       -4.4960819846        0.6786513381
 H         -0.5275811677       -3.6227111657       -0.3276577101
 H         -2.2740287015       -2.4220647347        1.9207093553
 O         -3.4200087814       -1.9718526398       -0.6020544502
