  62
        -98.94226752
 C          2.1567724030        1.0587178663        0.0988232083
 C          1.5341745190        0.2140179048       -0.8475209944
 C          1.9834152398       -1.1908549227       -0.8904326292
 C          2.9469992235       -1.5889836306       -0.0396643098
 C          3.5778226160       -2.9500635458        0.1068645546
 C          2.6780467122       -3.9597493959        0.8301955072
 C          1.2475773824       -4.0273439063        0.3039072046
 H          0.7045123557       -4.7543662743        0.9149226825
 H          0.7578634456       -3.0634029561        0.4546956490
 C          1.1156740661       -4.4529846736       -1.1574359326
 H          0.0515853986       -4.6202727720       -1.3429391953
 H          1.6324514044       -5.4046126894       -1.3021559621
 C          1.6209465892       -3.4503688463       -2.2005244593
 H          1.1655103121       -3.7205755576       -3.1573957815
 H          2.6968833124       -3.5235850920       -2.3394135861
 C          1.2326494769       -2.0036749010       -1.9159116844
 H          1.2944246268       -1.4281506941       -2.8468080183
 H          0.1784844038       -1.9659503747       -1.6156485212
 H          2.6338742725       -3.6850314329        1.8873693429
 H          3.1429072095       -4.9453623545        0.7565404899
 H          4.4851715342       -2.8074298439        0.6989666913
 H          3.8732306098       -3.3340215967       -0.8651842440
 O          3.5079225076       -0.7389145534        0.8717147080
 C          3.1144507114        0.5788513277        0.9873764840
 O          3.6824342994        1.2140373316        1.9022743889
 O          0.6388024138        0.6141992770       -1.6374982305
 C          1.7211877353        2.5094745372        0.2214182749
 C          0.2243754406        2.5528761540        0.4043326398
 C         -0.6209777214        3.3915865608       -0.3103421479
 C         -1.9946252534        3.3025109755       -0.1596493800
 C         -2.5535694646        2.3617059826        0.6864023751
 C         -1.7139639552        1.5405166158        1.4260112509
 C         -0.3414630770        1.6610260447        1.3076318786
 H          0.3028962177        1.0033957574        1.8795636441
 N         -2.2915874196        0.5046453445        2.2208523276
 S         -2.2168296892       -0.9613479053        1.3761499242
 O         -2.8720362718       -1.9354687027        2.2246768964
 O         -0.8573263357       -1.2890745961        1.0045246360
 C         -3.2113410796       -0.6190433651       -0.0545756323
 C         -4.5780042567       -0.7948073821        0.0470072926
 C         -5.3759197003       -0.4837532827       -1.0416429173
 C         -4.7951820915        0.0011130126       -2.2043548230
 C         -3.4222433488        0.1737809486       -2.2873076964
 C         -2.6153469158       -0.1361528810       -1.2027827963
 H         -1.5442445592       -0.0010435006       -1.2397944670
 H         -2.9665414286        0.5545238252       -3.1871591629
 H         -5.4157879778        0.2469108757       -3.0516931279
 H         -6.4440455403       -0.6165895306       -0.9798809147
 H         -4.9791351960       -1.1759622291        0.9717405466
 H         -1.8041778129        0.3731802824        3.0982670211
 H         -3.6214842644        2.2493146658        0.7790078650
 H         -2.6375118847        3.9547272111       -0.7300026288
 H         -0.2027913333        4.1026153989       -1.0040137555
 H          2.2021138859        2.8983770789        1.1310656473
 C          2.2069371000        3.3061109486       -0.9715432745
 C          2.4996148328        4.7695976028       -0.8358850606
 C          3.6242280177        3.7911119910       -0.9880036371
 H          4.1670945191        3.7661353911       -1.9208456509
 H          4.2330180642        3.5667402195       -0.1239264713
 H          2.2745063064        5.4201450249       -1.6673443540
 H          2.3512460971        5.2218905714        0.1329766477
 H          1.7895497513        2.9483831202       -1.9057627571
