  62
        -98.94320257
 C         -1.5625686858       -1.5084700241        0.1312056598
 C         -2.5611829362       -0.9458431835        0.9654090110
 C         -3.2470554025        0.2406221674        0.4426212119
 C         -2.8915771700        0.7424563795       -0.7539901835
 C         -3.5257999133        1.9211242871       -1.4415654064
 C         -2.9747343847        3.2806771073       -0.9919393324
 C         -3.3954324384        3.7236922141        0.4095625932
 H         -3.1213589582        4.7756576201        0.5105239566
 H         -4.4801423660        3.6611517768        0.5021930382
 C         -2.7332991096        2.9302975276        1.5448235642
 H         -2.3673234596        3.6205478610        2.3083429796
 H         -1.8641803616        2.3942555363        1.1553287188
 C         -3.6597541657        1.9338054825        2.2421746851
 H         -4.4636341365        2.4729209306        2.7485350343
 H         -3.0830632035        1.4007258507        3.0027468095
 C         -4.2853998164        0.8916184801        1.3056822719
 H         -4.7463055644        0.1131340568        1.9189136514
 H         -5.0572995452        1.3541252861        0.6907369947
 H         -1.8856172376        3.2460256221       -1.0469177512
 H         -3.3262893816        4.0279813368       -1.7068257624
 H         -3.3239060762        1.8031867923       -2.5082005714
 H         -4.6052585416        1.8945754512       -1.2887843677
 O         -1.8992698430        0.2006598292       -1.5058169499
 C         -1.1967926488       -0.9219281183       -1.0823788996
 O         -0.3005612285       -1.2776646056       -1.8665023631
 O         -2.8643759306       -1.4142826424        2.0958162923
 C         -0.8234262572       -2.7321111487        0.6433324215
 C          0.6625954293       -2.5274549727        0.4921852601
 C          1.4861550366       -3.3543146308       -0.2586965409
 C          2.8379065262       -3.0778041428       -0.3757241700
 C          3.3970570864       -1.9803163459        0.2518678882
 C          2.5806035917       -1.1446656633        1.0045028220
 C          1.2294083185       -1.4265269730        1.1246234542
 H          0.5938371099       -0.7719161191        1.7094274968
 N          3.1378087971       -0.0200497678        1.6498570042
 S          3.8605320078        1.1556700462        0.7025578362
 O          4.9828622633        0.5749362907        0.0115557936
 O          4.1585635957        2.2408571954        1.6096888695
 C          2.6191448016        1.6740726224       -0.4680076570
 C          2.3608778537        0.8871771442       -1.5724877917
 C          1.3722180232        1.2826768491       -2.4591140227
 C          0.6666886029        2.4533035845       -2.2292770167
 C          0.9402318605        3.2346916230       -1.1164440538
 C          1.9203296099        2.8392225591       -0.2211708815
 H          2.1665324988        3.4170389566        0.6554239243
 H          0.3962998553        4.1502731485       -0.9431093193
 H         -0.1019411119        2.7547037494       -2.9240181365
 H          1.1453123548        0.6640237920       -3.3116930602
 H          2.9261627959       -0.0173126558       -1.7262809466
 H          2.4978627441        0.4251986853        2.2927037646
 H          4.4440392513       -1.7432664042        0.1539048817
 H          3.4655111544       -3.7256651064       -0.9689270022
 H          1.0671529843       -4.2021965757       -0.7746947962
 H         -1.0533915957       -2.7570074760        1.7221453799
 C         -1.3165109897       -4.0519753714        0.0704552064
 C         -2.7335308526       -4.2092703432       -0.3917666321
 C         -1.6139155547       -4.2372034826       -1.3862908668
 H         -1.3609219486       -5.1827572343       -1.8435139565
 H         -1.4785859048       -3.3877613097       -2.0365987145
 H         -3.2476736112       -5.1314519848       -0.1658226887
 H         -3.3697773292       -3.3365679011       -0.3617516921
 H         -0.8865579356       -4.9026473864        0.5907091971
