  62
        -98.93896433
 C         -2.3450677130       -0.7726363542        0.6063335736
 C         -3.4288264644       -0.9895811844       -0.2800293818
 C         -4.6709717387       -0.2648592474        0.0316007300
 C         -4.7200255993        0.5425676147        1.1055013609
 C         -5.8994192400        1.3834391474        1.4978008046
 C         -5.8203371815        2.7809013386        0.8672653703
 C         -5.5296083515        2.7665156593       -0.6335403940
 H         -5.5278790866        3.8043395366       -0.9738073479
 H         -4.5234350468        2.3735477408       -0.7976499583
 C         -6.5324351299        1.9566632618       -1.4671643183
 H         -6.8003167960        2.5369297077       -2.3526214679
 H         -7.4471231443        1.7981172644       -0.8948535654
 C         -6.0037996503        0.6088741035       -1.9611927411
 H         -5.0391177290        0.7523717178       -2.4542621876
 H         -6.7008255219        0.2243696498       -2.7105160943
 C         -5.8399183836       -0.4763008940       -0.8896674367
 H         -6.7657400793       -0.5743038107       -0.3195606930
 H         -5.6494957490       -1.4232580456       -1.4027740254
 H         -6.7644263667        3.2965319041        1.0523130429
 H         -5.0240842920        3.3398791324        1.3643784884
 H         -6.8145828749        0.8839178073        1.1860266468
 H         -5.9027696354        1.4842748093        2.5844123194
 O         -3.6644779544        0.7208167610        1.9405354205
 C         -2.4622192933        0.0768529437        1.7117452285
 O         -1.5819524762        0.3312603708        2.5597568578
 O         -3.3895156109       -1.7441303814       -1.2879547068
 C         -0.9869732386       -1.4365906493        0.4476496551
 C         -0.1228192070       -0.7386836789       -0.5759419949
 C         -0.5042776064       -0.6388689908       -1.9100391670
 C          0.3299916304       -0.0329489239       -2.8313577989
 C          1.5651450718        0.4605600355       -2.4496108155
 C          1.9527528340        0.3700125019       -1.1180447920
 C          1.1030221507       -0.2164762433       -0.1906608975
 H          1.4131667318       -0.2678609281        0.8433009044
 N          3.1930304920        0.8717006368       -0.6924546287
 S          4.0121148929        0.0308361640        0.5220738916
 O          3.8871670477       -1.3930660743        0.3075459917
 O          3.5764705636        0.5239723890        1.8048026871
 C          5.6878336867        0.5556500534        0.2112096629
 C          6.5077727482       -0.2369211444       -0.5699402394
 C          7.7998825046        0.1900018784       -0.8329732342
 C          8.2466689584        1.3967336351       -0.3158035762
 C          7.4123299232        2.1809547629        0.4670870746
 C          6.1194144363        1.7597431431        0.7348148742
 H          5.4383904251        2.3297375199        1.3453408158
 H          7.7642501713        3.1167953523        0.8702265402
 H          9.2526773071        1.7267130187       -0.5213869315
 H          8.4518915263       -0.4190144430       -1.4381428067
 H          6.1200131599       -1.1715661937       -0.9421387637
 H          3.8030759618        1.1195800632       -1.4594060076
 H          2.2220893381        0.9175454790       -3.1741983623
 H          0.0217597901        0.0412712643       -3.8634282639
 H         -1.4584953875       -1.0406482654       -2.2138198566
 H         -0.4891303929       -1.3269697973        1.4214827364
 C         -1.0704215773       -2.9170441922        0.1218092833
 C          0.1525847398       -3.7615313056        0.3102371831
 C         -1.0183929941       -3.9194948624        1.2325835165
 H         -1.6225260681       -4.8106780488        1.1513892956
 H         -0.9265282554       -3.5438887103        2.2417914455
 H          0.3513543493       -4.5447765197       -0.4052851610
 H          1.0432482418       -3.2783417774        0.6867627202
 H         -1.7102472861       -3.1359977218       -0.7226156888
