  62
        -98.93918539
 C         -2.3621931100       -0.3939087103        0.6110485797
 C         -3.1700085599       -0.7541669396       -0.4961862206
 C         -4.1794701600        0.2392894307       -0.8940245999
 C         -4.2526829701        1.4218249602       -0.2589889790
 C         -5.2032152801        2.5438439204       -0.5777862983
 C         -6.5890534201        2.3913628698        0.0641487016
 C         -7.4783606401        1.3127708902       -0.5558257492
 H         -7.5272238400        1.4603679710       -1.6350856591
 H         -8.4850903901        1.4622328399       -0.1605474791
 C         -7.0364581900       -0.1251397500       -0.2500040702
 H         -7.9049880400       -0.7173720002        0.0469887993
 H         -6.3470031300       -0.1210594905        0.5975052098
 C         -6.3745609899       -0.8479109191       -1.4232247607
 H         -7.0988584299       -0.9741883385       -2.2308928608
 H         -6.0699235399       -1.8417708893       -1.0856881414
 C         -5.1360638299       -0.1378067086       -1.9851501302
 H         -5.4327976600        0.7438437418       -2.5527107796
 H         -4.6187989099       -0.8289840781       -2.6549224307
 H         -7.0994241002        3.3525172699       -0.0318535478
 H         -6.4597143002        2.1893986691        1.1300434314
 H         -5.3100136401        2.6374871311       -1.6589237982
 H         -4.7438449002        3.4573278901       -0.1937340376
 O         -3.4241288001        1.7502212595        0.7692136712
 C         -2.4810618201        0.8510606392        1.2344821206
 O         -1.8122854501        1.2677760386        2.2036050709
 O         -3.0707460699       -1.8333350191       -1.1318818613
 C         -1.2854332800       -1.3010088807        1.1856548891
 C          0.0190837000       -1.0431456201        0.4766473494
 C          0.1258384701       -1.1745711391       -0.9050675007
 C          1.3228150801       -0.9049724686       -1.5418657405
 C          2.4315959401       -0.4944919690       -0.8212849802
 C          2.3294482300       -0.3389375500        0.5539955499
 C          1.1284318400       -0.6215965405        1.1934541897
 H          1.0483577100       -0.4860872613        2.2638203098
 N          3.4486247600        0.0779747995        1.2924057703
 S          4.3621588299        1.3654787900        0.7220571912
 O          5.0252132098        1.8988339792        1.8918650616
 O          3.5604636599        2.2921242605       -0.0428952482
 C          5.5751943700        0.5911970808       -0.3278574993
 C          6.3118460700       -0.4579933495        0.1863537700
 C          7.2655421601       -1.0625036089       -0.6169053604
 C          7.4683771001       -0.6082371080       -1.9116382501
 C          6.7239884101        0.4491337523       -2.4115672694
 C          5.7671426900        1.0572535617       -1.6137739790
 H          5.1596135800        1.8773985919       -1.9624516384
 H          6.8829491201        0.8014735931       -3.4181046491
 H          8.2111338701       -1.0806018375       -2.5348930104
 H          7.8465348001       -1.8849763191       -0.2318155310
 H          6.1257599200       -0.7798403703        1.1972763797
 H          3.2724667899        0.1738516188        2.2822078003
 H          3.3637367901       -0.2772190986       -1.3164317900
 H          1.3948068001       -1.0137649478       -2.6134409706
 H         -0.7410170299       -1.4847942187       -1.4687794110
 H         -1.1636417600       -0.9714849414        2.2298910894
 C         -1.6871935699       -2.7692529407        1.2196853181
 C         -0.9982937998       -3.8419349601        0.4360643973
 C         -0.8021930099       -3.7598057712        1.9178913974
 H         -1.2569340598       -4.5086848816        2.5484716568
 H          0.1522321601       -3.4015874314        2.2745012077
 H         -1.6110054097       -4.6345482899        0.0346999067
 H         -0.1742254098       -3.5638905196       -0.2012124125
 H         -2.7557430499       -2.8926865209        1.3605122179
