  62
        -98.94527785
 C         -2.2660796052       -0.6082282676       -0.1670567029
 C         -1.3867922610       -0.9431800038        0.8859918380
 C         -0.6450289790       -2.2101050974        0.7521165090
 C         -0.8073898954       -2.9378344686       -0.3680069039
 C         -0.0919779286       -4.2126073214       -0.7197157484
 C          1.3449299468       -3.9648008351       -1.2249235390
 C          2.0795722396       -2.7921647745       -0.5735445457
 H          2.9805904378       -2.5966815964       -1.1629596846
 H          1.4627414229       -1.8947932349       -0.6551584633
 C          2.5094024135       -3.0064391510        0.8769642434
 H          3.3106724912       -3.7496328151        0.8972516848
 H          2.9197728202       -2.0617398685        1.2430698919
 C          1.4162922527       -3.4759331039        1.8340643757
 H          1.1102332900       -4.4868001578        1.5773758707
 H          1.8582256723       -3.5261171923        2.8335768434
 C          0.2021789097       -2.5565952682        1.9514853371
 H          0.5266249618       -1.5940992238        2.3582209019
 H         -0.4778726221       -2.9852722666        2.6986510153
 H          1.9250589371       -4.8798985621       -1.0944578895
 H          1.2886058462       -3.7491382014       -2.2944617795
 H         -0.6630869062       -4.6920006915       -1.5175128042
 H         -0.0998162835       -4.8771669384        0.1405158419
 O         -1.6413959711       -2.5617297758       -1.3770743327
 C         -2.3861475987       -1.4001219759       -1.3071526184
 O         -3.1106621512       -1.1847016526       -2.3017752830
 O         -1.2162542700       -0.2089910475        1.8965036606
 C         -3.0438981898        0.6952255057       -0.1083752578
 C         -2.0725758893        1.8440056896        0.0269282472
 C         -2.2277451798        2.8900885636        0.9272640492
 C         -1.2671779383        3.8834828699        1.0148692924
 C         -0.1302999763        3.8456530639        0.2280976400
 C          0.0273209586        2.8099934286       -0.6867645454
 C         -0.9564147531        1.8408646776       -0.8000345147
 H         -0.8305620024        1.0436106187       -1.5177295020
 N          1.1657610087        2.7331221388       -1.5111838642
 S          2.0642218527        1.3253048954       -1.5992253265
 O          3.1380973243        1.6350045385       -2.5184160501
 O          1.2171951597        0.2173640728       -1.9571009822
 C          2.7526475716        1.0901472632        0.0312098620
 C          4.1159406983        1.2362528327        0.2028278435
 C          4.6561410160        1.0832435115        1.4693629085
 C          3.8257003624        0.8001385494        2.5432857377
 C          2.4592317280        0.6629484849        2.3555791035
 C          1.9128205868        0.8040540954        1.0888757011
 H          0.8526187327        0.6894364863        0.9264875342
 H          1.8032738936        0.4465100465        3.1841825019
 H          4.2430267371        0.6841951866        3.5310595380
 H          5.7192414461        1.1874339301        1.6149009330
 H          4.7204275534        1.4607268440       -0.6609495023
 H          1.7855556931        3.5273347866       -1.4337091528
 H          0.6290515054        4.6076943457        0.3171279999
 H         -1.3972699527        4.6896615314        1.7206471016
 H         -3.0946061043        2.9229602411        1.5665729728
 H         -3.5565656450        0.7884931887       -1.0772666678
 C         -4.0804150407        0.6457799752        0.9945751504
 C         -5.3497170956        1.4329216287        0.8745919297
 C         -5.3769122318       -0.0589265191        0.7365650444
 H         -5.8129448534       -0.6449911644        1.5315665212
 H         -5.5220688290       -0.4823205229       -0.2470569918
 H         -5.7725949553        1.8700751233        1.7664919444
 H         -5.4888237669        2.0252174833       -0.0172596001
 H         -3.6363859165        0.5322549504        1.9767173347
