  62
        -98.94272076
 C         -2.4939661434       -0.4324576650        0.3228683120
 C         -2.2332569535        0.5360331342        1.3265885399
 C         -2.2330427475        1.9370773856        0.9004105067
 C         -2.4588131881        2.2366365414       -0.3910642805
 C         -2.4676832373        3.6159976621       -0.9913880150
 C         -1.0667666139        4.1396303985       -1.3388632094
 C         -0.2188610598        4.5729315915       -0.1418205330
 H          0.6241011281        5.1424362352       -0.5384244573
 H         -0.7992727340        5.2451587045        0.4916796550
 C          0.3277726078        3.4081715510        0.6955909748
 H          0.2765648050        2.4884336381        0.1073696271
 H          1.3844066037        3.5837377693        0.9141475851
 C         -0.3832425718        3.1983419643        2.0329804239
 H          0.0457397311        2.3161618299        2.5147815138
 H         -0.2031538795        4.0590777091        2.6813702349
 C         -1.8975103886        2.9834042257        1.9202357621
 H         -2.3941731303        3.9221559514        1.6759401970
 H         -2.2656303603        2.6319050324        2.8875198516
 H         -0.5326123523        3.3641856771       -1.8948329207
 H         -1.1938816784        4.9998152793       -2.0009005699
 H         -2.9622424718        4.3121967297       -0.3129307897
 H         -3.0510856695        3.5521860322       -1.9125842831
 O         -2.7287231641        1.2858281928       -1.3210384048
 C         -2.7066334521       -0.0671842397       -1.0065115980
 O         -2.9094553371       -0.8080096021       -1.9894438468
 O         -2.0110827641        0.2345122110        2.5300499012
 C         -2.3820066594       -1.8864132744        0.7564289161
 C         -0.9227107368       -2.2568870053        0.6786972262
 C         -0.2199961102       -2.7331037597        1.7780486790
 C          1.1488047609       -2.9349452310        1.7080860318
 C          1.8459558319       -2.6367504149        0.5502775366
 C          1.1470057768       -2.1716810064       -0.5555229289
 C         -0.2253613558       -2.0105950918       -0.4971077072
 H         -0.7542612018       -1.6365793462       -1.3622601893
 N          1.8730101018       -1.7541461363       -1.7106265972
 S          2.1183685180       -0.0808307202       -1.6361702746
 O          0.8910679005        0.6277315480       -1.3443204793
 O          2.7722955577        0.2797350676       -2.8756030519
 C          3.2501824534        0.0571011762       -0.2737634312
 C          4.5889379132       -0.1985567747       -0.4973820130
 C          5.4670799693       -0.1452909853        0.5731331536
 C          4.9919068706        0.1561031070        1.8409550494
 C          3.6441881445        0.4083918151        2.0482969232
 C          2.7602982446        0.3564526236        0.9819635958
 H          1.7036326480        0.5411247579        1.1012177428
 H          3.2737047291        0.6399038856        3.0339981917
 H          5.6753463466        0.1949013108        2.6744468692
 H          6.5156692480       -0.3409564806        0.4169374858
 H          4.9089115056       -0.4257176433       -1.5007953512
 H          1.3693186821       -1.9465685346       -2.5675699572
 H          2.9159946060       -2.7526196403        0.4929814777
 H          1.6809483963       -3.3017385628        2.5718932203
 H         -0.7494701410       -2.9153898593        2.7015036150
 H         -2.6711421849       -1.8924667680        1.8192453811
 C         -3.3071388339       -2.8400659452        0.0195804789
 C         -2.8167751622       -3.9085526973       -0.9073132246
 C         -3.3655408243       -4.2806845279        0.4352909414
 H         -4.3276834921       -4.7667156422        0.4867679119
 H         -2.6620618279       -4.6070880404        1.1863774250
 H         -3.4055048429       -4.1123994802       -1.7887416411
 H         -1.7536549687       -4.0010533189       -1.0667755202
 H         -4.2471099437       -2.3702297631       -0.2490748065
