  62
        -98.94039503
 C          2.3412545920        0.8576508112       -0.2203209165
 C          3.5988239765        1.1467233337        0.3630277618
 C          4.7456751078        0.4242665667       -0.1975207110
 C          4.5598478486       -0.4310311581       -1.2194757614
 C          5.6313639551       -1.2286989953       -1.9120938419
 C          5.9825819925       -2.5443563751       -1.2038095422
 C          6.7766333393       -2.3917120909        0.0940785672
 H          7.1381801586       -3.3851486657        0.3667935525
 H          7.6506411523       -1.7656083867       -0.0877743341
 C          5.9679591608       -1.8219916120        1.2679647058
 H          4.9005802025       -1.9085608494        1.0511342253
 H          6.1608179549       -2.4150273430        2.1648300159
 C          6.2870474953       -0.3666546760        1.6107599895
 H          5.6346658435       -0.0570258797        2.4312291972
 H          7.3205886225       -0.2893168325        1.9552767810
 C          6.0844568355        0.6155717514        0.4492779851
 H          6.8818432818        0.5007715725       -0.2843917161
 H          6.1185382726        1.6318956338        0.8491135211
 H          5.0575316531       -3.0899849625       -1.0036162274
 H          6.5764305571       -3.1408291355       -1.9001615406
 H          6.5296778565       -0.6205724802       -2.0206755936
 H          5.2477071844       -1.4647915737       -2.9069067773
 O          3.3375653070       -0.6638909831       -1.7676738763
 C          2.1964454350       -0.0522308519       -1.2675260324
 O          1.1439674482       -0.3941900438       -1.8394264774
 O          3.7538870433        1.9655513124        1.3083809334
 C          1.1041936601        1.5386057201        0.3384039901
 C          0.1790549403        0.4934914972        0.9110197541
 C          0.6446159313       -0.3018780891        1.9563364434
 C         -0.1528370608       -1.2869909623        2.5038513307
 C         -1.4343503247       -1.4968015446        2.0247018704
 C         -1.9059333164       -0.7140323959        0.9778391776
 C         -1.1026283422        0.2789004350        0.4322761987
 H         -1.4943583481        0.8707221453       -0.3774339539
 N         -3.1867242864       -0.9356943533        0.4483120935
 S         -4.0717848444        0.3616259251       -0.1637024988
 O         -3.6223403753        0.6615996789       -1.4994400741
 O         -4.0585388555        1.4599234703        0.7770910534
 C         -5.6931211688       -0.3785610395       -0.2294467343
 C         -5.9788419659       -1.2418228235       -1.2706162354
 C         -7.2235763281       -1.8490629971       -1.3149551874
 C         -8.1566729048       -1.5851072641       -0.3229526368
 C         -7.8565648723       -0.7147496067        0.7139775664
 C         -6.6126289341       -0.1050609616        0.7652395528
 H         -6.3370258617        0.5832917643        1.5478802912
 H         -8.5853137090       -0.5093347387        1.4814034682
 H         -9.1248070600       -2.0589987926       -0.3603684246
 H         -7.4611571403       -2.5241196263       -2.1212674752
 H         -5.2250577529       -1.4091637908       -2.0224950740
 H         -3.7566752480       -1.5336772616        1.0307167448
 H         -2.0594031306       -2.2670844440        2.4503188189
 H          0.2219386324       -1.8942080306        3.3141615113
 H          1.6457132181       -0.1340810117        2.3302493969
 H          1.4658528303        2.1652592267        1.1672722410
 C          0.4534999942        2.4310265144       -0.6955011382
 C         -0.4554960916        3.5379321893       -0.2549679493
 C          0.8956691343        3.8569479946       -0.8190613393
 H          0.9537827414        4.2945139254       -1.8043237610
 H          1.6640322728        4.1995253410       -0.1414541975
 H         -1.3324177600        3.7499306536       -0.8485262693
 H         -0.6088972435        3.6635613952        0.8064565357
 H          0.2043183239        1.9049277421       -1.6107056242
