  62
        -98.93384680
 C          2.3072152804        0.6884080197        0.1192192098
 C          2.9110971606       -0.2412255200        1.0039582600
 C          3.8558254705       -1.1934611201        0.4084457001
 C          4.0605380403       -1.1668925204       -0.9210303500
 C          5.0267911803       -2.0467596006       -1.6587016799
 C          6.4074135102       -1.3851697705       -1.7704368202
 C          6.9405619904       -0.8402937501       -0.4454046305
 H          7.9322769303       -0.4261119001       -0.6396078007
 H          6.3056337504       -0.0136613601       -0.1184070906
 C          7.0330643106       -1.8820075799        0.6783367298
 H          7.0038698906       -2.8869697900        0.2557870501
 H          7.9957366207       -1.7700961197        1.1816356096
 C          5.9518267708       -1.7534419396        1.7529865499
 H          6.2359753909       -2.3852661294        2.5988370100
 H          5.9146942507       -0.7223719096        2.1138461797
 C          4.5368088307       -2.1669476598        1.3290416002
 H          3.9186864008       -2.2098112496        2.2307358903
 H          4.5631078107       -3.1638136000        0.8840422705
 H          7.1092439502       -2.1175066306       -2.1735229801
 H          6.3373698401       -0.5557923407       -2.4778583904
 H          4.6349663402       -2.2208825509       -2.6621477198
 H          5.1100286304       -3.0003443204       -1.1408424396
 O          3.4314204102       -0.2944324307       -1.7447578101
 C          2.5475512102        0.6615817194       -1.2562319902
 O          2.0650901000        1.3886687091       -2.1396929903
 O          2.6681256807       -0.2736618497        2.2421889900
 C          1.3378496904        1.6940103198        0.7295888997
 C         -0.0392696097        1.4832760396        0.1508402700
 C         -0.5579930699        2.1173008193       -0.9719738501
 C         -1.8279272699        1.8091696591       -1.4303282999
 C         -2.6086578998        0.8604228392       -0.7971768195
 C         -2.1006860296        0.2090670795        0.3187357206
 C         -0.8337334695        0.5295729797        0.7821382203
 H         -0.4426179294        0.0143004199        1.6510127204
 N         -2.8705448494       -0.7782563504        0.9589710009
 S         -4.4490438594       -0.4005685704        1.3896828911
 O         -4.6000081994        1.0116626297        1.6538506407
 O         -4.7666282692       -1.2970113301        2.4797486213
 C         -5.4102232896       -0.8621216908       -0.0361227787
 C         -5.3241982295       -2.1650325509       -0.4860658984
 C         -6.0758020097       -2.5434281912       -1.5869761182
 C         -6.8981526598       -1.6188753514       -2.2137696783
 C         -6.9759517798       -0.3154450013       -1.7477376486
 C         -6.2260846397        0.0697321490       -0.6472565388
 H         -6.2512892797        1.0729013991       -0.2523046191
 H         -7.6160790999        0.4015270585       -2.2361861787
 H         -7.4820306899       -1.9163162817       -3.0704765981
 H         -6.0179979097       -3.5561082213       -1.9524104479
 H         -4.6763756894       -2.8531871607        0.0310389717
 H         -2.3923659393       -1.2309522202        1.7246899210
 H         -3.5947670698        0.6186685490       -1.1583659793
 H         -2.2106027301        2.3145044088       -2.3041118600
 H          0.0341850500        2.8296349292       -1.5170411004
 H          1.2748672606        1.3793081501        1.7835209998
 C          1.9275943803        3.0977008699        0.7818577893
 C          2.1561174701        4.0080022496       -0.3858522710
 C          1.1171947402        4.3507020598        0.6388042191
 H          1.3190714203        5.1672898200        1.3161609288
 H          0.0771653102        4.2505076396        0.3710813192
 H          3.0727605501        4.5812408796       -0.3920168813
 H          1.8603933600        3.6738912793       -1.3659292409
 H          2.7101799904        3.1282648601        1.5369788091
