  62
        -98.94119860
 C         -2.7031631662       -0.2993201107       -0.4554186806
 C         -2.9988073090        0.6156621549        0.5903406620
 C         -2.6981107040        2.0255793069        0.3317494862
 C         -2.1990070908        2.3889394929       -0.8629951915
 C         -1.8067330853        3.7805846281       -1.2760567085
 C         -0.3905634927        4.1657724477       -0.8248421565
 C         -0.2468378413        4.4685245509        0.6673967874
 H          0.7198954135        4.9573241325        0.8030524182
 H         -1.0183601916        5.1767007020        0.9726395202
 C         -0.2966024111        3.2274397740        1.5700597956
 H         -0.0994108457        2.3317560746        0.9736806429
 H          0.5051428986        3.2826081261        2.3109932637
 C         -1.6070201185        3.0494213443        2.3385859684
 H         -1.5458700687        2.1111176960        2.8964588979
 H         -1.7202288397        3.8637539258        3.0582390542
 C         -2.8632257298        2.9987802431        1.4591209176
 H         -3.0941840238        3.9917206233        1.0743439535
 H         -3.6979097712        2.6561783572        2.0757121381
 H          0.2943306715        3.3566145394       -1.0926038555
 H         -0.0976464573        5.0559082728       -1.3867161358
 H         -1.8413318092        3.8048714863       -2.3672715138
 H         -2.5262891942        4.5011877423       -0.8867050199
 O         -1.9927741646        1.4962639251       -1.8632044573
 C         -2.1717005263        0.1337007001       -1.6700071794
 O         -1.8299826425       -0.5488102305       -2.6590250251
 O         -3.4863803215        0.2599775784        1.6967210692
 C         -2.8521703614       -1.7721731209       -0.1055290799
 C         -1.5498013047       -2.2268364333        0.5130866864
 C         -1.4966444634       -2.8020077148        1.7764252693
 C         -0.2797198628       -3.0946747259        2.3693206429
 C          0.9080147938       -2.7976021332        1.7245037855
 C          0.8611335023       -2.2383950734        0.4563821479
 C         -0.3559127122       -1.9806678700       -0.1498302975
 H         -0.3725407946       -1.5322974499       -1.1331237195
 N          2.0752090632       -1.8385387979       -0.1749733165
 S          2.4402031678       -0.2396368447        0.2675427112
 O          2.3254559852       -0.1385364572        1.7001961353
 O          1.6507196370        0.6924752753       -0.5106945900
 C          4.1555854600       -0.1435211659       -0.2076636913
 C          5.0718779992       -0.8543993690        0.5434072204
 C          6.4062238596       -0.8283767809        0.1723035314
 C          6.7994718346       -0.0968349850       -0.9389108977
 C          5.8680701070        0.6110645263       -1.6827284606
 C          4.5306474723        0.5873034940       -1.3173259585
 H          3.7717778971        1.1236385913       -1.8647174799
 H          6.1759999404        1.1795473831       -2.5455731938
 H          7.8386621368       -0.0775552746       -1.2268747986
 H          7.1337406732       -1.3773239032        0.7480690122
 H          4.7186858933       -1.4023279598        1.4009054046
 H          1.9682785751       -1.8373223778       -1.1827441890
 H          1.8622066009       -2.9697236095        2.1941478018
 H         -0.2570277726       -3.5326461218        3.3555602382
 H         -2.4170354739       -2.9877822557        2.3102348289
 H         -3.6251428682       -1.8156076171        0.6738538239
 C         -3.2680450330       -2.6736131247       -1.2481195906
 C         -3.9036378537       -3.9936640459       -0.9326106074
 C         -4.7251236413       -2.8878544371       -1.5222966471
 H         -5.0460807325       -2.9697718474       -2.5495777444
 H         -5.4331422190       -2.3809920361       -0.8830316821
 H         -3.6605443263       -4.8416211094       -1.5539314802
 H         -4.0577952842       -4.2392325385        0.1070596199
 H         -2.6047898671       -2.6231039822       -2.1012753198
