  62
        -98.94336899
 C         -1.2282171283       -0.6550428676        0.5934658404
 C         -1.9431133209       -0.4861873449       -0.6178710903
 C         -2.9414183518        0.5925564936       -0.6214483061
 C         -3.0546099625        1.4095136263        0.4401286381
 C         -4.0085350241        2.5654521342        0.5734503046
 C         -5.4151630719        2.1634509328        1.0384068972
 C         -6.2636463227        1.4366948350       -0.0059781153
 H         -7.2864017373        1.4106276141        0.3751985342
 H         -6.2748692321        2.0165540250       -0.9293857399
 C         -5.8110017230        0.0003042687       -0.3031902129
 H         -6.6801139358       -0.6611181910       -0.3117053597
 H         -5.1528313365       -0.3466144272        0.4967275196
 C         -5.0956758011       -0.1742635326       -1.6429588623
 H         -4.7896230767       -1.2195044770       -1.7342994821
 H         -5.7872549850        0.0462838789       -2.4589659601
 C         -3.8471629750        0.7020852027       -1.8106679228
 H         -3.2914679004        0.3493080811       -2.6831788422
 H         -4.1341778671        1.7403748494       -1.9768292414
 H         -5.3227324036        1.5405224962        1.9311889718
 H         -5.9364459744        3.0796271533        1.3253872031
 H         -4.0743462778        3.0970913772       -0.3764619261
 H         -3.5773032529        3.2392275443        1.3173228452
 O         -2.2679320518        1.2851781146        1.5426131630
 C         -1.3478654808        0.2545414585        1.6467529455
 O         -0.6935275599        0.2609604565        2.7099041898
 O         -1.7703318006       -1.1894247420       -1.6461860764
 C         -0.1858515032       -1.7468115488        0.7583776699
 C          0.7686104752       -1.7244871608       -0.4108062961
 C          1.1494043621       -2.8452072715       -1.1361916416
 C          2.0619855692       -2.7277250530       -2.1709652494
 C          2.6307883866       -1.5073992073       -2.4867244219
 C          2.2525499238       -0.3789523900       -1.7675507164
 C          1.3259183469       -0.4975055227       -0.7464486085
 H          1.0112078076        0.3890398335       -0.2168881846
 N          2.8010663248        0.8824730344       -2.0454250742
 S          3.0636412102        1.9539338587       -0.7904551179
 O          1.8241827815        2.5653864831       -0.3784746047
 O          4.0708672325        2.8598599070       -1.3012926640
 C          3.7562378439        0.9627603552        0.5223237933
 C          5.0087650503        0.4180650878        0.3116131264
 C          5.5625562128       -0.3937883607        1.2871067050
 C          4.8553286745       -0.6517796718        2.4519096150
 C          3.6029789487       -0.0930988498        2.6517478201
 C          3.0450711773        0.7235857645        1.6800997040
 H          2.0693373929        1.1658281710        1.8121504744
 H          3.0458356051       -0.2894013882        3.5542234634
 H          5.2817878768       -1.2892482815        3.2101691468
 H          6.5390429113       -0.8248033336        1.1365271524
 H          5.5318115025        0.6502741988       -0.6017281691
 H          3.5547035481        0.8858925502       -2.7164680196
 H          3.3475421616       -1.4218421681       -3.2888035234
 H          2.3415271301       -3.6039265373       -2.7359400788
 H          0.7177378303       -3.8058000568       -0.9086345899
 H          0.3925175570       -1.4455352290        1.6484732229
 C         -0.7537093053       -3.1254530431        1.0624182761
 C         -2.1278729370       -3.2877370359        1.6394960908
 C         -1.8429224660       -3.7470211205        0.2427798205
 H         -1.7982772248       -4.8099552580        0.0547230387
 H         -2.2351413388       -3.1720096578       -0.5802370934
 H         -2.2772593029       -4.0302025903        2.4092255422
 H         -2.7227106829       -2.3951978678        1.7726976965
 H          0.0058559351       -3.7980253799        1.4487196604
