  62
        -98.94298993
 C          0.2371145117        1.9587475643        0.2749561571
 C         -0.9198771572        2.4223876216       -0.3914555987
 C         -2.1932251903        1.8416121949        0.0511457318
 C         -2.2015467857        0.9494782666        1.0575417176
 C         -3.4128459108        0.2592512722        1.6252769605
 C         -4.1142071357       -0.7271502595        0.6693613702
 C         -5.3092238773       -0.1282642362       -0.0831736507
 H         -6.1087438667       -0.8709514089       -0.1221141210
 H         -5.6949864689        0.7195982054        0.4846308812
 C         -5.0322346890        0.3068711275       -1.5256020484
 H         -5.0214325732       -0.5765001385       -2.1685969809
 H         -5.8598448447        0.9420022287       -1.8501497744
 C         -3.7156392360        1.0493553643       -1.7582304434
 H         -2.8847496126        0.3377474268       -1.7385646390
 H         -3.7343378609        1.4662342705       -2.7678076637
 C         -3.4215082286        2.1734545282       -0.7442352774
 H         -4.2763003786        2.3349726017       -0.0889691119
 H         -3.2107674827        3.1046389361       -1.2744926229
 H         -3.3874460709       -1.1266626499       -0.0403875105
 H         -4.4739429318       -1.5623369473        1.2732999483
 H         -4.1286999365        1.0134214565        1.9592833512
 H         -3.0595290064       -0.2806901563        2.5056780203
 O         -1.0713031346        0.5760801406        1.7156384707
 C          0.1764451868        1.0210293790        1.3063708970
 O          1.1309273150        0.5248014501        1.9328168077
 O         -0.8876164618        3.2728499115       -1.3234513783
 C          1.6002257092        2.3783638736       -0.2374767731
 C          2.3629747602        1.1702638815       -0.7299273676
 C          3.7515963407        1.1021075528       -0.7235783232
 C          4.4007327998       -0.0286555938       -1.1883761860
 C          3.6868513299       -1.1241520841       -1.6404948757
 C          2.2979669264       -1.0658843902       -1.6481304725
 C          1.6545930824        0.0840894968       -1.2242345569
 H          0.5764812723        0.1143419488       -1.2623721100
 N          1.5170511937       -2.1563840373       -2.0688718111
 S          0.1240220931       -2.5526505034       -1.2386833329
 O         -0.1664665256       -3.9053471175       -1.6726225397
 O         -0.9198928352       -1.5907289125       -1.4982917253
 C          0.5030689622       -2.5870154014        0.5054465246
 C          1.7835865915       -2.8354379492        0.9545590443
 C          2.0122923603       -2.9031265801        2.3192071004
 C          0.9635504941       -2.7368008859        3.2080969080
 C         -0.3194322121       -2.5046313774        2.7415690077
 C         -0.5526032323       -2.4295777834        1.3790876496
 H         -1.5338500516       -2.2350115700        0.9769764846
 H         -1.1366129004       -2.3696563236        3.4322395482
 H          1.1473516321       -2.7813594013        4.2700209451
 H          3.0119176800       -3.0779749883        2.6833477432
 H          2.5933734416       -2.9574925867        0.2544170515
 H          2.0345340643       -2.9849749160       -2.3241603106
 H          4.1946994834       -2.0129966913       -1.9833316482
 H          5.4793470851       -0.0648418563       -1.1826654134
 H          4.3247350903        1.9357083879       -0.3515827444
 H          1.4021798275        3.0351001129       -1.0987362664
 C          2.3617867228        3.1656073797        0.8101042481
 C          3.2685987170        4.2901341677        0.4100675930
 C          1.9607886330        4.5842988565        1.0790313401
 H          1.9665712359        4.9380427867        2.0989391106
 H          1.1593777160        4.9923187211        0.4802329077
 H          4.1759989494        4.4458151705        0.9739698360
 H          3.3562711569        4.5149711637       -0.6423626063
 H          2.6436852420        2.5553175655        1.6603830592
