  62
        -98.94387482
 C         -1.8750975453        0.1904856640       -1.0430195999
 C         -2.1369517627       -0.4101931140        0.2117829511
 C         -3.5535592379       -0.6551704049        0.5146959438
 C         -4.4975499419       -0.3384580899       -0.3902081692
 C         -5.9792371293       -0.5519222842       -0.2372059364
 C         -6.6947222436        0.5645667838        0.5355560687
 C         -6.4303020101        0.5856404289        2.0415249713
 H         -7.1565044454        1.2698307341        2.4848436179
 H         -6.6205483268       -0.4045211138        2.4567885683
 C         -5.0183222237        1.0457613253        2.4302302679
 H         -5.0825588853        1.7686233093        3.2466572876
 H         -4.5558517924        1.5588580070        1.5839767512
 C         -4.0902994909       -0.0775422312        2.8931696167
 H         -3.1087499731        0.3533044333        3.1074929205
 H         -4.4745991979       -0.5134946965        3.8181430631
 C         -3.8980381079       -1.2020197470        1.8670739935
 H         -3.0623390341       -1.8258775443        2.1946278929
 H         -4.7948616966       -1.8190903070        1.8127401617
 H         -6.4110107746        1.5263727033        0.1023742314
 H         -7.7677595114        0.4328235556        0.3788016613
 H         -6.1628376719       -1.5094674462        0.2509345939
 H         -6.3930747818       -0.5909929431       -1.2471280392
 O         -4.1998884668        0.2111089585       -1.5978341910
 C         -2.8909551766        0.5038525360       -1.9459560636
 O         -2.7624658387        1.0235564740       -3.0730644471
 O         -1.2397743071       -0.7290226011        1.0349721602
 C         -0.4482182358        0.5142549147       -1.4466258308
 C          0.4040318558       -0.7308868227       -1.4169608626
 C         -0.0651496955       -1.8798209124       -2.0493477706
 C          0.6879274903       -3.0369900232       -2.0624143733
 C          1.9264915728       -3.0738032947       -1.4458996138
 C          2.4099549888       -1.9312738094       -0.8211708669
 C          1.6535250776       -0.7663968328       -0.8176044335
 H          2.0459746605        0.1064750850       -0.3238852983
 N          3.6831559642       -1.9265603056       -0.2340940521
 S          3.9771175831       -1.1082897870        1.1960096922
 O          5.2103142503       -1.6910839623        1.6843180793
 O          2.8534967202       -1.1591659967        2.1000262028
 C          4.3042363016        0.5696695266        0.6994516837
 C          5.1355932350        0.7955636532       -0.3798902518
 C          5.4286879179        2.1021598029       -0.7360610600
 C          4.8972114854        3.1547393973       -0.0062683559
 C          4.0671686065        2.9109495509        1.0773669833
 C          3.7657716538        1.6059336117        1.4357787374
 H          3.1143185406        1.3699718340        2.2626720852
 H          3.6533290665        3.7299767628        1.6444486742
 H          5.1279606592        4.1711833633       -0.2837165655
 H          6.0712302726        2.2966832701       -1.5794935829
 H          5.5333412753       -0.0469476730       -0.9201239392
 H          4.1608622353       -2.8159328436       -0.2518739319
 H          2.5140682761       -3.9794343909       -1.4485852114
 H          0.3069604957       -3.9209895335       -2.5516167171
 H         -1.0357069894       -1.8524859075       -2.5265661405
 H         -0.5025903190        0.8609434660       -2.4894295608
 C          0.0963855839        1.6392946703       -0.5911756916
 C          1.1064812807        2.5899080589       -1.1581971261
 C         -0.2995416218        3.0474628858       -0.9151360273
 H         -0.4886069575        3.7298030464       -0.1001008204
 H         -0.9478387319        3.1944579495       -1.7669794229
 H          1.8873825110        2.9603540947       -0.5116385897
 H          1.4170866752        2.4333066888       -2.1800103191
 H          0.1735600544        1.3676637918        0.4561227880
