  62
        -98.94000206
 C          2.0493843941        0.7380210485       -0.2284187471
 C          3.1557249531        0.7214931851        0.6605532280
 C          3.8341303778       -0.5674700264        0.8388739274
 C          3.3620071006       -1.6490458656        0.1933329360
 C          3.9776350200       -3.0169307327        0.2483033922
 C          5.0047916124       -3.2104295423       -0.8761215029
 C          6.0154365243       -2.0693201238       -0.9924946764
 H          6.7060789953       -2.3281718489       -1.7979523983
 H          5.4914221623       -1.1607524929       -1.2979652953
 C          6.8085487443       -1.7896334414        0.2917278278
 H          6.7425086224       -2.6475271591        0.9616797709
 H          7.8612339920       -1.6609841175        0.0315488430
 C          6.3776647338       -0.5275754131        1.0412175524
 H          6.3509611218        0.3179991323        0.3494578676
 H          7.1342130683       -0.3072272162        1.7989238766
 C          5.0234007257       -0.6063954539        1.7573341922
 H          4.9921068502       -1.4960155197        2.3895465722
 H          4.9340727537        0.2751178414        2.3986847787
 H          5.5319671046       -4.1505239665       -0.7036252167
 H          4.4676681657       -3.2903705115       -1.8241171601
 H          4.4532595704       -3.1554830118        1.2173783560
 H          3.1821344570       -3.7553976155        0.1344793500
 O          2.2858967924       -1.6041421270       -0.6316751628
 C          1.6057708626       -0.4163622472       -0.8752265504
 O          0.6639120117       -0.5417373354       -1.6811023026
 H         -1.1377502340        0.9491188150       -0.8124802205
 C         -1.0665061501        1.4870196586        0.1194894890
 C          0.1208250335        2.1094435379        0.4810359239
 C          0.1923945581        2.7562557326        1.7110776495
 C         -0.8986260821        2.7812658395        2.5598194494
 C         -2.0798177483        2.1608042482        2.1975700817
 C         -2.1625787503        1.5105762740        0.9705194426
 N         -3.3695534824        0.9084821712        0.5747581371
 S         -3.3223611554       -0.5257794661       -0.3179877949
 O         -2.4168929080       -1.4667131876        0.3028834129
 O         -3.1016064055       -0.2040732226       -1.7039679051
 C         -5.0105777507       -1.0649162948       -0.1037225402
 C         -5.9987479492       -0.4421987882       -0.8431503694
 C         -7.3165337306       -0.8309530908       -0.6632224488
 C         -7.6237050883       -1.8307929461        0.2479363340
 C         -6.6217873497       -2.4481634412        0.9811850544
 C         -5.3016275574       -2.0623108512        0.8071006182
 H         -4.4881400637       -2.5175742959        1.3490734590
 H         -6.8624890756       -3.2272565536        1.6864387900
 H         -8.6499424174       -2.1327555342        0.3852965842
 H         -8.0977039609       -0.3547060183       -1.2334010505
 H         -5.7101181883        0.3220415060       -1.5456327580
 H         -4.0281149345        0.8306367349        1.3387712094
 H         -2.9340871176        2.1779125100        2.8573651579
 H         -0.8276787500        3.2840141147        3.5124235619
 H          1.1225030326        3.2225863327        2.0023145072
 C          1.3398024014        2.0707985309       -0.4102013501
 H          2.0476678321        2.8214908867       -0.0314616823
 C          1.0174722989        2.4062533446       -1.8508372186
 C          0.7495515652        3.8350053524       -2.2152398386
 C          2.0164522181        3.1719608208       -2.6635422601
 H          2.1292326251        2.9212345569       -3.7076289667
 H          2.9397241259        3.4576777791       -2.1806760310
 H         -0.0120048580        4.0424458996       -2.9511068031
 H          0.8147184692        4.5706759824       -1.4277941060
 H          0.4480864486        1.6405605842       -2.3615813038
 O          3.5622431787        1.7454249647        1.2728945014
