  62
        -98.94878267
 C         -1.8139720496       -1.3358634758       -0.2492167136
 C         -2.8878201573       -0.6509894642        0.3639899142
 C         -3.2619344915        0.6283598951       -0.2460845828
 C         -2.5965991738        1.0714103046       -1.3288079824
 C         -2.8479505621        2.3663070387       -2.0516775421
 C         -2.1253685727        3.5610615309       -1.4135329989
 C         -2.7431755690        4.0679960623       -0.1096593256
 H         -2.2933692359        5.0404443518        0.1007586292
 H         -3.8140855458        4.2243423862       -0.2479943635
 C         -2.5030848155        3.1478201877        1.0955016013
 H         -2.1918505515        3.7487288538        1.9542563282
 H         -1.6742744250        2.4711539006        0.8699830247
 C         -3.7244356765        2.3355956607        1.5290612369
 H         -3.4284434166        1.6909929342        2.3612369149
 H         -4.5027311103        3.0126325044        1.8893435539
 C         -4.3209876122        1.4460845445        0.4303009763
 H         -5.0283897334        0.7554984566        0.8967133682
 H         -4.8546619358        2.0559638708       -0.2980272554
 H         -2.1324241467        4.3779252900       -2.1392447657
 H         -1.0845378104        3.2802007304       -1.2305988649
 H         -2.4688639977        2.2361694670       -3.0675241306
 H         -3.9189536560        2.5654442627       -2.1003559837
 O         -1.5947164990        0.3659679402       -1.9115852152
 C         -1.1348570326       -0.8129007188       -1.3507075753
 O         -0.1458574942       -1.3052631513       -1.9276949358
 H         -0.3654535582       -0.4791972765        1.6764091260
 C          0.4432242372       -1.1545740184        1.4237815304
 C          0.1553670049       -2.3553246712        0.7853234678
 C          1.2085256122       -3.2080380799        0.4829649023
 C          2.5141455018       -2.8429223960        0.7673370922
 C          2.7984805939       -1.6119566161        1.3306415822
 C          1.7484018348       -0.7669243377        1.6621497710
 N          2.0412636350        0.5468107272        2.1385156803
 S          1.9196779022        1.6451812882        0.8549718876
 O          2.2581024302        2.9380969324        1.4129858832
 O          0.6247437228        1.5739482010        0.2130139902
 C          3.2079694713        1.0805343133       -0.2280941217
 C          2.9092472855        0.1875004002       -1.2379517220
 C          3.9443278580       -0.2885742692       -2.0287069894
 C          5.2452377634        0.1305002589       -1.7967027219
 C          5.5257332732        1.0293789932       -0.7780427785
 C          4.4984951783        1.5079693368        0.0183382169
 H          4.6630563592        2.2075546842        0.8212828825
 H          6.5384366776        1.3538492004       -0.6008725719
 H          6.0448144394       -0.2468816877       -2.4145504069
 H          3.7211409645       -0.9896731981       -2.8168278475
 H          1.8878827743       -0.1272459924       -1.3944457599
 H          1.4003178006        0.8484549731        2.8617114026
 H          3.8125506322       -1.2942360813        1.5102159882
 H          3.3217618361       -3.5130861129        0.5170886075
 H          1.0077919737       -4.1513637324        0.0018199023
 C         -1.2798566590       -2.6055576004        0.3935773075
 H         -1.8796466630       -2.7520879385        1.3041666046
 C         -1.4635423880       -3.8004248740       -0.5162728127
 C         -1.5989922989       -5.1762060114        0.0632901729
 C         -2.7901152194       -4.4965320602       -0.5401750556
 H         -3.1669147853       -4.8542390875       -1.4864737257
 H         -3.5580391942       -4.1216144910        0.1207005279
 H         -1.5620779764       -5.2718485950        1.1378769990
 H         -1.1603458652       -6.0058341375       -0.4700119768
 H         -0.9401641557       -3.6876109902       -1.4589645494
 O         -3.4933128666       -1.0818734356        1.3846964164
