  62
        -98.94762749
 C         -1.7298822261       -1.3771830962       -0.2006482107
 C         -2.8291448806       -0.7632430782        0.4412712156
 C         -3.3304954067        0.4693883267       -0.1784157620
 C         -2.7284356036        0.9413448994       -1.2857111351
 C         -3.1194972475        2.2006551900       -2.0030157226
 C         -2.3167791811        3.4055930316       -1.4951861313
 C         -2.3003984575        3.5410031150        0.0273071171
 H         -1.7261065549        2.7101442250        0.4452656238
 H         -1.7439256260        4.4510840757        0.2648404551
 C         -3.6884778877        3.6032733386        0.6800502933
 H         -4.4360002638        3.8734388960       -0.0670039583
 H         -3.6819003648        4.3938208395        1.4336447744
 C         -4.1210617908        2.3181717657        1.3885481224
 H         -3.3224357361        1.9871744823        2.0581691301
 H         -4.9931426196        2.5478601547        2.0070053273
 C         -4.5023613417        1.1459933564        0.4754795746
 H         -4.9813910944        0.3829396953        1.0963057188
 H         -5.2226421475        1.4820928940       -0.2731099147
 H         -2.7323022073        4.3114710534       -1.9414806956
 H         -1.2816172666        3.2999815309       -1.8285747577
 H         -2.9176804618        2.0652758617       -3.0671718203
 H         -4.1848123065        2.3758889496       -1.8640570521
 O         -1.6668996613        0.3315976199       -1.8677166021
 C         -1.1136667961       -0.8121568922       -1.3179881287
 O         -0.1057166589       -1.2348570219       -1.9161533084
 H         -0.2295767037       -0.5350204792        1.7319313547
 C          0.5891863271       -1.1759007878        1.4275006801
 C          0.3134477686       -2.3563256471        0.7478367139
 C          1.3786267125       -3.1655544228        0.3755413475
 C          2.6824702288       -2.7769364301        0.6349353532
 C          2.9517406524       -1.5650331499        1.2450197046
 C          1.8909071878       -0.7647365963        1.6455992095
 N          2.1658622902        0.5332180809        2.1741107678
 S          1.9564261031        1.6842791005        0.9488222230
 O          2.2770691374        2.9615939204        1.5518797765
 O          0.6382065910        1.5959899014        0.3586412784
 C          3.2162965652        1.2116408629       -0.2096487328
 C          2.9055277352        0.3513480357       -1.2440200145
 C          3.9217179762       -0.0544387832       -2.0960911551
 C          5.2164860002        0.4002948898       -1.8995540956
 C          5.5093144530        1.2652824422       -0.8553685386
 C          4.5010513414        1.6737396147        0.0019969675
 H          4.6758694845        2.3446705727        0.8269144040
 H          6.5171150360        1.6177044955       -0.7056921382
 H          6.0014810582        0.0775041456       -2.5652357641
 H          3.6888546817       -0.7294947241       -2.9038938274
 H          1.8897585137        0.0072697993       -1.3723766408
 H          1.5469015837        0.7802723417        2.9360902802
 H          3.9621824850       -1.2278831960        1.4089640227
 H          3.4990623359       -3.4129435571        0.3305213571
 H          1.1877317025       -4.0929600853       -0.1392626275
 C         -1.1269436193       -2.6362452570        0.4011923941
 H         -1.6878686670       -2.8179639863        1.3300355836
 C         -1.3118487161       -3.8183571666       -0.5256651364
 C         -1.3816750418       -5.2087618626        0.0300174599
 C         -2.6166857518       -4.5545936343       -0.5101307822
 H         -3.0214716024       -4.9052829859       -1.4474898896
 H         -3.3675423977       -4.2161666232        0.1889765289
 H         -1.2971474979       -5.3240714777        1.0999487455
 H         -0.9408025697       -6.0138726540       -0.5378802204
 H         -0.8317367156       -3.6709530030       -1.4865143423
 O         -3.3647336009       -1.2247420734        1.4877629486
