  62
        -98.93143614
 C          2.4611653030        1.2649615722       -0.3560743188
 C          2.0555757292       -0.0562773675       -0.0471128815
 C          3.0836421101       -0.9405006073        0.5407060946
 C          4.3259046926       -0.4725909145        0.7560322103
 C          5.5511037985       -1.1263955040        1.3604245986
 C          5.6219786461       -2.6405712410        1.5412878635
 C          5.6670454390       -3.4405585152        0.2398525947
 H          6.6279052424       -3.2572315576       -0.2475530023
 H          5.6188623235       -4.5023697306        0.4910380425
 C          4.5693165539       -3.1190816562       -0.7712199253
 H          4.6740016563       -2.0862182843       -1.1095874399
 H          4.7209707893       -3.7601299134       -1.6438786185
 C          3.1404292273       -3.3374249962       -0.2771493755
 H          2.4746860018       -3.2314650301       -1.1379560690
 H          3.0341748798       -4.3550539907        0.1035344022
 C          2.6565049726       -2.3558341897        0.8047577723
 H          1.5623006655       -2.3530939253        0.7967089932
 H          2.9716712505       -2.6714275678        1.7965086375
 H          4.8061910141       -2.9834009176        2.1710576012
 H          6.5481401888       -2.8445108747        2.0856217886
 H          6.3950488097       -0.7999902577        0.7443096831
 H          5.6854780292       -0.6546969573        2.3402502962
 O          4.6631755854        0.8183239982        0.4652839161
 C          3.7561455680        1.7089655662       -0.0766446868
 O          4.2179886014        2.8523566572       -0.2633433099
 H         -0.9160531109        1.1525245816       -1.4464971696
 C         -0.9049784247        1.6868446538       -0.5094194230
 C          0.2493650411        2.3384582793       -0.1083184120
 C          0.2576021563        2.9892728663        1.1214013946
 C         -0.8660966897        2.9893560757        1.9267108202
 C         -2.0161840627        2.3319872040        1.5266712131
 C         -2.0279946746        1.6677150219        0.3079187540
 N         -3.1887796476        0.9880951522       -0.1073424205
 S         -4.0265806949        0.1050545375        1.0642807544
 O         -4.9012137962        1.0097915879        1.7704744889
 O         -3.1115913949       -0.6519810309        1.8882347368
 C         -4.9912188181       -0.9866422371        0.0377151460
 C         -4.4242515188       -2.1755592825       -0.3816570652
 C         -5.1603874969       -3.0161297609       -1.2015662689
 C         -6.4423952173       -2.6541944266       -1.5881785112
 C         -6.9970866567       -1.4575807208       -1.1597330040
 C         -6.2667308979       -0.6125158558       -0.3390809490
 H         -6.6573653317        0.3232321295        0.0251764588
 H         -7.9944835334       -1.1811870281       -1.4612931183
 H         -7.0125607146       -3.3110367306       -2.2259753870
 H         -4.7316664630       -3.9476460984       -1.5347197578
 H         -3.4271718199       -2.4208714714       -0.0503336687
 H         -3.0089383345        0.4150249613       -0.9209985598
 H         -2.8942674628        2.3061439799        2.1521778544
 H         -0.8462612837        3.4984651396        2.8789316089
 H          1.1630868744        3.4849311953        1.4451685320
 C          1.5120974560        2.3045450027       -0.9317167713
 H          2.0320309800        3.2656011590       -0.7917018800
 C          1.2472672324        2.1706110432       -2.4240713688
 C          2.3674095383        1.8305428609       -3.3605949009
 C          1.2471225626        0.8595142741       -3.1481674225
 H          0.5337367395        0.7218502603       -3.9479232638
 H          1.4406938983       -0.0347812231       -2.5780566231
 H          2.4293826210        2.3521400298       -4.3036704439
 H          3.3285554394        1.6075299334       -2.9198750798
 H          0.5375740004        2.9160995452       -2.7703313348
 O          0.8977236512       -0.5061166627       -0.2470003239
