  62
        -98.94947358
 C         -1.0546620879       -1.7363966607        0.1108150587
 C         -1.6918507885       -0.9622715117        1.1091450491
 C         -2.8411362093       -0.1642207526        0.6683397896
 C         -3.2143944795       -0.1915914725       -0.6240172504
 C         -4.3644131803        0.5671235267       -1.2286640499
 C         -4.0291180817        2.0233233571       -1.5802019794
 C         -3.9341208524        2.9760760267       -0.3876907090
 H         -3.9417521134        3.9912970069       -0.7895433786
 H         -4.8202428822        2.8653436157        0.2389646611
 C         -2.6694076421        2.7973890176        0.4634906708
 H         -2.2428083530        3.7784009879        0.6888013811
 H         -1.9163611417        2.2594447186       -0.1186798296
 C         -2.8981547713        2.0873634868        1.7981442105
 H         -1.9330143911        1.9818007676        2.2993928803
 H         -3.5377038018        2.7063293160        2.4319657608
 C         -3.5340879500        0.6961407963        1.6827241200
 H         -3.4432704794        0.1991081160        2.6521075698
 H         -4.5917163501        0.7886067554        1.4358599802
 H         -4.8138566821        2.3869576967       -2.2480731691
 H         -3.0853040818        2.0429124483       -2.1316834795
 H         -4.6315680099        0.0429317168       -2.1488774601
 H         -5.2201912301        0.5416503656       -0.5528188598
 O         -2.5827035389       -0.9559787615       -1.5535678008
 C         -1.4828137981       -1.7332355206       -1.2175411713
 O         -0.9932493476       -2.3676422497       -2.1716910016
 H          0.5996613905       -0.1614756888       -0.6798154309
 C          1.4638414411       -0.8010203680       -0.7471083713
 C          1.4045337924       -2.0899042183       -0.2410534618
 C          2.5231358331       -2.9044832971       -0.3854061023
 C          3.6552973626       -2.4331684858       -1.0260841623
 C          3.7088385613       -1.1428363656       -1.5232780318
 C          2.5964439406       -0.3214409267       -1.3857317413
 N          2.5907363792        0.9869159135       -1.8864399907
 S          1.6721754482        2.1799213424       -1.1660494001
 O          0.2700480184        1.9754218912       -1.4306948400
 O          2.2375203470        3.4108936631       -1.6763914797
 C          2.0220363786        2.0368563920        0.5766343198
 C          3.2876286383        2.3850422330        1.0085526397
 C          3.6056358087        2.2317500628        2.3477346196
 C          2.6616870593        1.7244717915        3.2287505295
 C          1.3948283395        1.3845458405        2.7817974696
 C          1.0700487092        1.5454798807        1.4444430097
 H          0.0913309894        1.2864699500        1.0735017497
 H          0.6541448500        0.9768184095        3.4520771595
 H          2.9123255196        1.5946474513        4.2697071195
 H          4.5881220685        2.5014196836        2.7001767296
 H          3.9916240979        2.7817615940        0.2952848098
 H          3.4762653989        1.3293091645       -2.2265265607
 H          4.5929047509       -0.7780972045       -2.0229564818
 H          4.5130888232       -3.0788556449       -1.1367298527
 H          2.5026587642       -3.9114421073       -0.0013557627
 C          0.1640420029       -2.5534587797        0.4876605382
 H          0.3183812729       -2.3657110000        1.5620062082
 C         -0.0994525957       -4.0345800599        0.2899138976
 C          0.4404855254       -5.0446538898        1.2568340371
 C         -1.0253125249       -4.7363542512        1.2368609375
 H         -1.7076694042       -5.4730615616        0.8404005373
 H         -1.4366901153       -4.1529437919        2.0477545978
 H          1.0169485052       -4.6811897596        2.0942015572
 H          0.7664302863       -6.0001841593        0.8742540067
 H         -0.1573737256       -4.3072708395       -0.7577913125
 O         -1.3184257883       -0.9394619419        2.3134667190
