  62
        -98.93988897
 C         -2.7051582635       -0.7018724628        0.2277957336
 C         -2.7676824349        0.3629748828        1.1580606495
 C         -3.2546569000        1.6435681022        0.6347473082
 C         -3.6160107508        1.7412484947       -0.6578853487
 C         -4.1504610185        2.9737403056       -1.3357421596
 C         -3.0607216170        3.9366848529       -1.8269957913
 C         -2.3368637529        4.7154172333       -0.7278203782
 H         -1.7597148464        5.5010643447       -1.2192365272
 H         -3.0713015414        5.2036061268       -0.0865435761
 C         -1.3859170668        3.8669859534        0.1282034426
 H         -1.1720430092        2.9281422122       -0.3886232959
 H         -0.4351098541        4.3918240453        0.2451221532
 C         -1.9067112387        3.5542462241        1.5313478996
 H         -1.1735110321        2.9206517472        2.0374481978
 H         -2.0007044238        4.4805681256        2.1021931459
 C         -3.2573400725        2.8262035246        1.5560841509
 H         -4.0606097262        3.5133551185        1.2919046645
 H         -3.4301451737        2.4578191754        2.5702718340
 H         -2.3331052273        3.3700657328       -2.4127546611
 H         -3.5391375276        4.6550713333       -2.4965590571
 H         -4.8263223810        3.4998074299       -0.6610603274
 H         -4.7206769388        2.6292771807       -2.2010593608
 O         -3.5473176331        0.6918636436       -1.5191386479
 C         -3.0635754822       -0.5435523471       -1.1112737185
 O         -3.0116687544       -1.3960380328       -2.0170405551
 O         -2.4257481603        0.2500094565        2.3669102425
 C         -2.1745022630       -2.0464600009        0.6919865133
 C         -0.8699271510       -2.3432428616       -0.0078794483
 C         -0.6143205666       -3.5211231445       -0.6954285308
 C          0.6076781347       -3.7158813200       -1.3173975548
 C          1.5956783037       -2.7507163509       -1.2670852989
 C          1.3557708457       -1.5724501558       -0.5702293247
 C          0.1337785613       -1.3832672691        0.0566789133
 H         -0.0544553374       -0.4672214802        0.6038748750
 N          2.3443724980       -0.5674199111       -0.5213856474
 S          3.9090426918       -1.0493093911       -0.0978929367
 O          4.5079526574       -1.7096189350       -1.2297201932
 O          3.8800255456       -1.8083577450        1.1333677595
 C          4.6882848765        0.5310806818        0.1611577541
 C          5.1313406560        1.2380003713       -0.9405148129
 C          5.7171629019        2.4788841402       -0.7478211162
 C          5.8485364281        2.9892711251        0.5352852656
 C          5.3998161930        2.2674309338        1.6310458287
 C          4.8115065865        1.0261484627        1.4452823616
 H          4.4562826107        0.4267852936        2.2684347436
 H          5.5058509773        2.6653313196        2.6274707605
 H          6.3062083313        3.9546725531        0.6829642375
 H          6.0693992247        3.0425870904       -1.5965557467
 H          5.0160162588        0.7974924909       -1.9169932755
 H          2.0564813374        0.2025429391        0.0684867043
 H          2.5495003493       -2.8963419789       -1.7472232111
 H          0.7925579190       -4.6345712733       -1.8536804681
 H         -1.3714797640       -4.2855843878       -0.7511897891
 H         -1.9592819286       -1.9190654107        1.7637438661
 C         -3.2192369900       -3.1291256578        0.5326650943
 C         -3.1839545117       -4.3406995637        1.4140441253
 C         -4.2489918152       -3.3045690408        1.6068528950
 H         -5.2611389089       -3.5426671184        1.3163294148
 H         -4.1835869052       -2.6564476416        2.4686957695
 H         -3.4669872451       -5.2936097740        0.9931450834
 H         -2.3952971168       -4.4005518763        2.1489208246
 H         -3.5433983606       -3.2500973824       -0.4945022779
