  62
        -98.93740966
 C          1.6471331694        1.1206226300        0.2124122908
 C          2.8622987794        0.9540747900        0.9254154409
 C          3.6275644197       -0.2793006797        0.6747509305
 C          3.1334838901       -1.1990145394       -0.1741651400
 C          3.6463023305       -2.5672275691       -0.5719847606
 C          5.0838334506       -2.9809173388       -0.2682029706
 C          6.1501578705       -2.2040047582       -1.0392878901
 H          7.1310505005       -2.5161955281       -0.6741595201
 H          6.0860583607       -2.4790797577       -2.0951998702
 C          6.0493677201       -0.6830534883       -0.9528266094
 H          6.8664278000       -0.2600013678       -1.5437050691
 H          5.1163866900       -0.3505836683       -1.4128240694
 C          6.1450958297       -0.0999605989        0.4559453609
 H          7.0550093598       -0.4588609789        0.9408125209
 H          6.2266453394        0.9860711712        0.3573178514
 C          4.9489159697       -0.3931193796        1.3785361906
 H          5.0469744899       -1.3652649798        1.8559673402
 H          4.9406955194        0.3608333700        2.1711089809
 H          5.1717204209       -4.0326884287       -0.5540824810
 H          5.2736779004       -2.9290062593        0.7998397995
 H          2.9733757606       -3.2872128195       -0.0932781210
 H          3.4709472307       -2.6499074386       -1.6493767506
 O          1.9467624001       -1.0100353894       -0.8174505201
 C          1.1849495998        0.1413291603       -0.6669296397
 O          0.1570900399        0.1430831104       -1.3678819698
 H         -1.3871083507        2.2257976898       -1.0646659791
 C         -1.5824875207        1.9081886393       -0.0525819592
 C         -0.5666131609        1.9516540091        0.8885362109
 C         -0.8339287809        1.5139920385        2.1822546207
 C         -2.0905793109        1.0506014880        2.5254285203
 C         -3.0968135407        0.9842737281        1.5773457901
 C         -2.8308207707        1.3987980488        0.2789318004
 N         -3.8246172305        1.2775219890       -0.7067339698
 S         -4.7646342401       -0.1049460813       -0.7018080106
 O         -5.1483609099       -0.3091398307       -2.0821124207
 O         -5.8603883703        0.0692421780        0.2222294093
 C         -3.7363162798       -1.4546409312       -0.1384173011
 C         -4.2677146697       -2.3497072918        0.7695606984
 C         -3.4936215295       -3.4157514218        1.1975422281
 C         -2.2020990294       -3.5671185212        0.7164463282
 C         -1.6840056395       -2.6601158507       -0.1940089713
 C         -2.4556606597       -1.5958441307       -0.6332768510
 H         -2.0414316198       -0.8810556602       -1.3262183806
 H         -0.6757381294       -2.7572816602       -0.5657225313
 H         -1.5950866692       -4.3926237612        1.0538130379
 H         -3.8964584494       -4.1211563322        1.9064389177
 H         -5.2715895898       -2.1873810422        1.1276108184
 H         -3.4932871504        1.4822210995       -1.6383939797
 H         -4.0789732207        0.6128218278        1.8223295998
 H         -2.2873774309        0.7250316775        3.5354041501
 H         -0.0398091210        1.5334571983        2.9155513508
 C          0.8318211391        2.3675705097        0.5143276513
 H          1.3142003088        2.7965642694        1.4068240816
 C          0.8663724189        3.4477311302       -0.5558648982
 C          2.1557009389        3.7900519508       -1.2395505979
 C          1.0379688792        3.1657540009       -2.0170251483
 H          0.4969607791        3.7838923611       -2.7192265481
 H          1.1376811995        2.1390594711       -2.3310144888
 H          2.3911309287        4.8290479310       -1.4139979673
 H          3.0155439591        3.1793155209       -1.0052239980
 H          0.2194451587        4.2816915099       -0.2994797879
 O          3.2909018490        1.8023950398        1.7521897214
