  62
        -98.93653316
 C         -1.2128229803       -0.5883210586        0.5940319507
 C         -2.0534633399       -0.6189642894       -0.5449229196
 C         -3.0571983395        0.4514549709       -0.6177793509
 C         -3.0780752996        1.4180589017        0.3170526882
 C         -4.0251745493        2.5866227720        0.3614767369
 C         -5.3792516496        2.2678035830        1.0104925766
 C         -6.3148230296        1.3969334125        0.1707062971
 H         -7.2975154697        1.4343458032        0.6450149367
 H         -6.4165744491        1.8313966117       -0.8242081834
 C         -5.8793141399       -0.0703039377        0.0521515485
 H         -5.1464259203       -0.2961614973        0.8300686890
 H         -6.7400755402       -0.7203360873        0.2241671188
 C         -5.2897268395       -0.4489443691       -1.3065666109
 H         -6.0560113392       -0.3513884795       -2.0786613313
 H         -4.9818385399       -1.4967047691       -1.2665091499
 C         -4.0706608991        0.3861379602       -1.7201532212
 H         -3.5955891090       -0.0978725007       -2.5770403706
 H         -4.3814403387        1.3888463100       -2.0132853722
 H         -5.1988666301        1.7858176438        1.9741852471
 H         -5.8791734894        3.2197784233        1.2037095256
 H         -3.5323108993        3.3631156524        0.9509609064
 H         -4.1832517188        2.9681661312       -0.6477997335
 O         -2.1972429000        1.4547668123        1.3533435785
 C         -1.2557391903        0.4524913122        1.5203806998
 O         -0.5182919107        0.6000187229        2.5182576799
 O         -1.9732015298       -1.4831972702       -1.4532607288
 C         -0.1618314007       -1.6725283987        0.7985553920
 C          0.7260267898       -1.7033997101       -0.4248433076
 C          1.0743634697       -2.7880179109       -1.2183745765
 C          1.9346533702       -2.6260924321       -2.2936304363
 C          2.4904705507       -1.3983353225       -2.5957124172
 C          2.1480922707       -0.3012002017       -1.8128198283
 C          1.2743035202       -0.4653841305       -0.7540017185
 H          0.9906204503        0.4026490501       -0.1790419893
 N          2.6767825012        0.9723176079       -2.0675911892
 S          2.9358788210        2.0327460290       -0.8026176801
 O          1.6909918510        2.6213443297       -0.3743804610
 O          3.9225509215        2.9594497882       -1.3177880505
 C          3.6645708002        1.0442471599        0.4926860811
 C          4.9139387102        0.5065598293        0.2476316420
 C          5.5017794696       -0.2971806300        1.2097338429
 C          4.8315582090       -0.5525295288        2.3967544729
 C          3.5825088291        0.0000380618        2.6308269220
 C          2.9894060597        0.8079821711        1.6724817310
 H          2.0127675998        1.2401010215        1.8318149503
 H          3.0539839287       -0.1942843273        3.5506870519
 H          5.2842607286       -1.1835428883        3.1451498636
 H          6.4756660495       -0.7236384205        1.0315946737
 H          5.4078364806        0.7366024483       -0.6823263380
 H          3.4086293914        1.0082933171       -2.7610883390
 H          3.1654612610       -1.2825981934       -3.4293661171
 H          2.1811855902       -3.4825617327       -2.9027402255
 H          0.6723466694       -3.7672485606       -1.0349288658
 H          0.4745356091       -1.3033299882        1.6212942120
 C         -0.8531754113       -2.9160067581        1.3365279229
 C         -1.4651452513       -4.0012446486        0.5084206436
 C         -0.2691946317       -4.2968682082        1.3656525043
 H         -0.4261711522       -4.8833082474        2.2591749948
 H          0.6891123185       -4.4653496989        0.9036212548
 H         -2.4248945915       -4.3873384681        0.8212703336
 H         -1.3643631508       -3.9346994796       -0.5622126664
 H         -1.4184544715       -2.6353506371        2.2239214624
