  62
        -98.93953893
 C         -2.6250140395       -1.2570198990        0.0677484403
 C         -2.7619638164       -0.2583015220       -0.9260477347
 C         -4.1163062309        0.2862753011       -1.1001980793
 C         -5.1230228544       -0.1939092769       -0.3475524689
 C         -6.5353179642        0.3127322084       -0.3801989745
 C         -6.7457118750        1.4315473997        0.6497593260
 C         -5.6805743994        2.5270962392        0.5985958233
 H         -5.9478781452        3.2755968679        1.3477721094
 H         -4.7180497368        2.1048811542        0.8971529643
 C         -5.5316967571        3.2047868070       -0.7707091665
 H         -6.4176031012        3.0128133103       -1.3771364616
 H         -5.4685711767        4.2847212241       -0.6212841809
 C         -4.2832812038        2.7899238739       -1.5517423609
 H         -4.1625443819        3.4803282118       -2.3908108512
 H         -3.4005258423        2.8924647869       -0.9149603039
 C         -4.2983845297        1.3680946600       -2.1271335908
 H         -5.2163955863        1.2107644944       -2.6968351735
 H         -3.4484671331        1.2779326567       -2.8098697787
 H         -6.7334705805        0.9893056757        1.6487087636
 H         -7.7308413599        1.8718152555        0.4853649315
 H         -6.7625643870        0.6772464482       -1.3799598936
 H         -7.2041858923       -0.5165251964       -0.1440455751
 O         -4.9560106541       -1.1735563862        0.5779432182
 C         -3.7048300276       -1.7162689179        0.8207624461
 O         -3.6839029046       -2.5848938111        1.7167919290
 H          1.2849195529       -1.3477686469       -0.5964964021
 C          0.9686269464       -0.6483491794        0.1616420611
 C         -0.2886475516       -0.7682701571        0.7305705567
 C         -0.6604408880        0.1423601110        1.7164807069
 C          0.1936504156        1.1574479089        2.1009634314
 C          1.4395132372        1.2887833180        1.5127000513
 C          1.8266611327        0.3789629662        0.5394594375
 N          3.0835825317        0.5107407119       -0.0756478595
 S          4.4034268618        0.9022367555        0.9015739370
 O          4.4021012593        0.0786598488        2.0902114939
 O          4.4054606208        2.3264350173        1.1240316473
 C          5.7563360438        0.4537217488       -0.1677232817
 C          6.1694676945        1.3538663392       -1.1316212538
 C          7.2023764354        0.9952103381       -1.9829963398
 C          7.8004818423       -0.2500516850       -1.8578646174
 C          7.3755240389       -1.1422319740       -0.8848364935
 C          6.3421472949       -0.7905499152       -0.0307273923
 H          5.9854041474       -1.4484703360        0.7455688014
 H          7.8444958863       -2.1082448429       -0.7883228048
 H          8.6048175219       -0.5262224782       -2.5212664750
 H          7.5374154389        1.6864327247       -2.7394325473
 H          5.6809344794        2.3126665678       -1.1861637819
 H          3.2943149286       -0.2656330315       -0.6876289757
 H          2.1151642346        2.0780507342        1.8007065956
 H         -0.1121787951        1.8571830974        2.8648662186
 H         -1.6348710011        0.0435948588        2.1768716146
 C         -1.2600550740       -1.8591743865        0.3476171250
 H         -1.3904752130       -2.5177175944        1.2190334786
 C         -0.8101142720       -2.6960007786       -0.8318221910
 C          0.1123445038       -3.8589711839       -0.6257929508
 C         -1.3289262048       -4.0953392186       -0.9613079998
 H         -1.5773077958       -4.4644815060       -1.9449935938
 H         -1.9870107146       -4.4525915394       -0.1824440322
 H          0.8525566391       -4.0721353146       -1.3824357969
 H          0.4379525181       -4.0664683874        0.3824934592
 H         -0.7105777997       -2.1134915772       -1.7406139203
 O         -1.8059732322        0.1575319695       -1.6310346562
