  62
        -98.93789594
 C         -2.3606183302       -0.0329476499        0.4689723303
 C         -3.3442061201       -0.6811892798       -0.3178747398
 C         -4.4483427500        0.1692215602       -0.7852798601
 C         -4.4577823699        1.4833044803       -0.5016321301
 C         -5.5050158397        2.4766966203       -0.9259852904
 C         -6.7349363899        2.5155269305       -0.0082583206
 C         -7.6710282700        1.3114830306       -0.1214420707
 H         -8.5910854900        1.5708662607        0.4061674892
 H         -7.9306117398        1.1516324306       -1.1684081207
 C         -7.1097610002        0.0134676406        0.4757522195
 H         -7.8769158003       -0.4678610293        1.0865360594
 H         -6.2740719303        0.2486495205        1.1388683296
 C         -6.6458406101       -1.0115815095       -0.5591010204
 H         -7.5019409400       -1.3560214095       -1.1435463505
 H         -6.2325923003       -1.8724509295       -0.0274598402
 C         -5.5728023999       -0.4916746997       -1.5244671702
 H         -5.1577603199       -1.3439214098       -2.0680215501
 H         -6.0145979697        0.1989403203       -2.2423239403
 H         -7.3020800997        3.4140464406       -0.2621808007
 H         -6.3962412900        2.6176187605        1.0253494995
 H         -5.8188056296        2.2653163403       -1.9485972704
 H         -5.0280978096        3.4589636703       -0.9045504403
 O         -3.4687201099        2.0795093502        0.2158204800
 C         -2.4189871401        1.3397871601        0.7299918902
 O         -1.6054186001        2.0092257901        1.3994417203
 O         -3.3287527702       -1.9015642299       -0.6263309297
 C         -1.1713674904       -0.7577322700        1.0805052606
 C         -0.0723696802       -0.9460895401        0.0612813608
 C         -0.2183770701       -1.8101868802       -1.0185206892
 C          0.8072395700       -1.9649232603       -1.9334292090
 C          1.9940903501       -1.2675986504       -1.7932212089
 C          2.1497114600       -0.4013366104       -0.7196319489
 C          1.1200438898       -0.2505609002        0.2011283309
 H          1.2383935998        0.4343380198        1.0304891709
 N          3.3453084300        0.3265644995       -0.5809069088
 S          4.7897059000       -0.5088252007       -0.8512766585
 O          5.0526440502       -0.5169433908       -2.2686778084
 O          4.7390519498       -1.8042491406       -0.2118615284
 C          5.9614352599        0.5477898093       -0.0236660983
 C          6.4436099102        1.6600194492       -0.6872383083
 C          7.3372521601        2.4934636392       -0.0336346482
 C          7.7309777999        2.2030469592        1.2643140719
 C          7.2389761797        1.0825689893        1.9167244419
 C          6.3438653497        0.2454468993        1.2695179718
 H          5.9429407795       -0.6412613406        1.7340380717
 H          7.5490254095        0.8579511893        2.9246039919
 H          8.4281417199        2.8523465492        1.7699428520
 H          7.7240156603        3.3644344891       -0.5376901582
 H          6.1174979104        1.8406397692       -1.6981860684
 H          3.3775767399        0.8472008596        0.2848954012
 H          2.8026592802       -1.3862200706       -2.4967868387
 H          0.6821583601       -2.6383622004       -2.7683208590
 H         -1.1475344601       -2.3442031601       -1.1431872293
 H         -0.7887243904       -0.0845751299        1.8595788706
 C         -1.5479155206       -2.0733581199        1.7334335306
 C         -0.6329432508       -2.6554047899        2.7666571608
 C         -1.9573234908       -2.0838407798        3.1740232405
 H         -2.7403658110       -2.7603022397        3.4819023504
 H         -1.9658137908       -1.1392083197        3.6987341604
 H         -0.5029503309       -3.7263109299        2.7943842808
 H          0.2583840492       -2.0991768500        3.0157221009
 H         -2.0570580906       -2.7569833199        1.0679042605
