  62
        -98.93243597
 C         -2.3623897907       -0.8683748395        0.8151150803
 C         -3.3929147006       -0.8581115893       -0.1535609597
 C         -4.4343674507        0.1771946607        0.0040001906
 C         -4.3388635407        1.0728965404        1.0033604508
 C         -5.2547166407        2.2019221102        1.4287776011
 C         -6.3904639007        2.6709904405        0.5235458412
 C         -5.9380578707        3.3722546308       -0.7572743286
 H         -6.8184824407        3.5555093310       -1.3769607185
 H         -5.5126129408        4.3425915908       -0.4890269083
 C         -4.8938514107        2.6270684411       -1.5850009788
 H         -4.6468713907        3.2485556413       -2.4501193486
 H         -3.9774068507        2.5103742610       -1.0027114388
 C         -5.3271443907        1.2586920312       -2.1062519392
 H         -6.2558621607        1.3575111814       -2.6718047291
 H         -4.5523107906        0.9076300714       -2.7933533092
 C         -5.5200290707        0.1736542809       -1.0339338495
 H         -6.4987703807        0.2493272308       -0.5666627695
 H         -5.4668875606       -0.8002985889       -1.5290902697
 H         -6.9739720508        3.3907764203        1.1040353414
 H         -7.0540310107        1.8427993805        0.2929741510
 H         -5.6833683708        1.8877463500        2.3869003310
 H         -4.5992625208        3.0504352602        1.6496949214
 O         -3.3010328007        1.0467605002        1.8914648108
 C         -2.3018389907        0.0967825402        1.8219264606
 O         -1.4251079707        0.2115431900        2.7029242406
 H          0.9845196193       -0.4457491595        1.1652811305
 C          0.8772110893       -0.7330660293        0.1270700304
 C         -0.2228040806       -1.4917063092       -0.2511456798
 C         -0.3649836806       -1.8394206088       -1.5893086699
 C          0.5745379494       -1.4313593785       -2.5196897998
 C          1.6686063894       -0.6744486986       -2.1404223296
 C          1.8181716793       -0.3190933690       -0.8062254095
 N          2.9182819593        0.4664642409       -0.4131769492
 S          4.4260229093        0.0267885312       -1.0390281693
 O          4.5617018394        0.6121253515       -2.3495124992
 O          4.5920539394       -1.4076854689       -0.9693685897
 C          5.5297499993        0.8369098209        0.1008036109
 C          5.7931816793        2.1828122109       -0.0695617287
 C          6.6373427493        2.8177762407        0.8273781715
 C          7.1997853993        2.1012467804        1.8734778413
 C          6.9259783793        0.7509635404        2.0310750609
 C          6.0817396793        0.1097946106        1.1382419207
 H          5.8482417293       -0.9400273394        1.2163919504
 H          7.3666351493        0.1960243401        2.8436330708
 H          7.8581415992        2.5974183302        2.5689631214
 H          6.8550084292        3.8667584507        0.7072843018
 H          5.3415573393        2.6964472311       -0.9021519486
 H          2.9594997193        0.5834131007        0.5902328508
 H          2.4106429294       -0.3591360884       -2.8564824395
 H          0.4538226194       -1.7065592982       -3.5569096399
 H         -1.2264646506       -2.4077153187       -1.9004573801
 C         -1.2320071306       -1.8863504695        0.8010061300
 H         -0.7424378007       -1.7930350098        1.7798863801
 C         -1.7205257706       -3.3117078195        0.6468487696
 C         -0.7899343806       -4.4349945895        0.9881761493
 C         -1.9619847306       -4.1370363598        1.8732437894
 H         -2.7952502406       -4.8235097998        1.8754953192
 H         -1.7737012606       -3.6768025101        2.8325318495
 H         -0.8153491006       -5.3275833594        0.3822544991
 H          0.1956824994       -4.1752373496        1.3448308294
 H         -2.3993400906       -3.4521960392       -0.1832069204
 O         -3.4729011106       -1.6757192790       -1.1067250399
