  62
        -98.94469097
 C          2.0986271824        0.9774701805       -0.4524739007
 C          3.1474569536        1.2368132025        0.4649038693
 C          4.4184652365        0.5565395534        0.1967073359
 C          4.5291878699       -0.2524842163       -0.8726179182
 C          5.7643444257       -1.0037582047       -1.2896563029
 C          5.9556069195       -2.3425504584       -0.5637378191
 C          6.3801797359       -2.2339368238        0.9013692017
 H          6.6882538571       -3.2318414284        1.2198408930
 H          7.2526654225       -1.5843375789        0.9784181062
 C          5.2776619562       -1.7335066773        1.8450941795
 H          4.3060751999       -1.8306230190        1.3546827319
 H          5.2486795783       -2.3632964407        2.7371616469
 C          5.4534029302       -0.2895511024        2.3153055081
 H          6.3575391986       -0.2095417990        2.9228475450
 H          4.5996984938       -0.0287185449        2.9457837324
 C          5.5354562824        0.7387415820        1.1795671325
 H          5.4374537114        1.7369272697        1.6132119080
 H          6.4999338077        0.6685271253        0.6772560306
 H          5.0263394668       -2.9130533392       -0.6326004813
 H          6.7266833556       -2.8978956093       -1.1028099932
 H          5.6601534465       -1.2040077198       -2.3582430747
 H          6.6436712258       -0.3771230431       -1.1377663884
 O          3.5012674130       -0.4701724405       -1.7344754403
 C          2.2584513854        0.1173238593       -1.5388288625
 O          1.4105781381       -0.1953217133       -2.3965819568
 O          3.0270455780        2.0039970269        1.4564754578
 C          0.7509732604        1.6348658408       -0.2044011064
 C         -0.2361018679        0.5614033884        0.1801042118
 C         -0.1815233560        0.0263863354        1.4647058859
 C         -1.0367828232       -0.9902254476        1.8450967799
 C         -1.9643083405       -1.4974709050        0.9516156742
 C         -2.0255644192       -0.9711750510       -0.3315648041
 C         -1.1746504364        0.0603962557       -0.7080402663
 H         -1.2254383368        0.4484487286       -1.7128039148
 N         -2.9675757537       -1.4809443763       -1.2411464550
 S         -4.5430236097       -1.6573846416       -0.7092293452
 O         -4.6668331764       -2.8752423424        0.0527100599
 O         -5.3609292409       -1.5713072715       -1.8985871701
 C         -4.8247350465       -0.2493630786        0.3500899748
 C         -4.7564533779        1.0091043091       -0.2144810969
 C         -4.9261950269        2.1182851736        0.5974196156
 C         -5.1575297141        1.9510855602        1.9544209707
 C         -5.2273386637        0.6811898036        2.5052874488
 C         -5.0573028022       -0.4321640842        1.6976859750
 H         -5.1022042574       -1.4368343331        2.0851748137
 H         -5.4092973276        0.5544656605        3.5603344555
 H         -5.2847067511        2.8167644442        2.5851382071
 H         -4.8734873949        3.1071647788        0.1709394052
 H         -4.5812186573        1.1034506723       -1.2740852293
 H         -2.9264442794       -1.0548604979       -2.1548796898
 H         -2.6310216198       -2.2997156488        1.2234865588
 H         -0.9807095136       -1.3954075046        2.8439621205
 H          0.5514638060        0.4143652571        2.1583008003
 H          0.9044542713        2.2840172245        0.6684074136
 C          0.3112453177        2.4882164418       -1.3748254379
 C         -0.7947829518        3.4816136954       -1.1838613254
 C          0.6154610455        3.9550239535       -1.3643172833
 H          0.8864796914        4.4304734931       -2.2951526189
 H          1.1373558790        4.3505550619       -0.5054361054
 H         -1.4943586177        3.6369378174       -1.9909583118
 H         -1.2316151659        3.5537742225       -0.1994927881
 H          0.3794132566        1.9770849183       -2.3277130601
