  62
        -98.94041413
 C         -1.8706230120       -1.4000007599        0.2380006722
 C         -1.7083160879       -0.0305345887       -0.0678550630
 C         -2.8800382209        0.8372456097        0.1538976347
 C         -4.0210844242        0.2995533874        0.6244254503
 C         -5.3490633729        0.9328030789        0.9845629638
 C         -5.6755871236        2.3606315997        0.5554459360
 C         -5.8602549270        2.5472933483       -0.9502554919
 H         -6.7830771598        2.0450913489       -1.2514941841
 H         -5.9820931356        3.6139089282       -1.1510296131
 C         -4.7340422590        2.0021574821       -1.8249499891
 H         -4.6633668917        0.9195417272       -1.7006392091
 H         -5.0014799613        2.1881615857       -2.8687850811
 C         -3.3591671561        2.6208023307       -1.5810625969
 H         -2.6916025621        2.2588352293       -2.3679127518
 H         -3.4238885425        3.7068369942       -1.6720448460
 C         -2.7086908329        2.2790563851       -0.2295801428
 H         -1.6310887329        2.4409815571       -0.3268355276
 H         -3.0696380414        2.9338013538        0.5599310170
 H         -4.9275063939        3.0489594650        0.9371493547
 H         -6.6213529873        2.6219031679        1.0379089952
 H         -6.1167926916        0.2573266906        0.5938036965
 H         -5.4173923577        0.8751053954        2.0765232259
 O         -4.1240069224       -1.0313887715        0.9156424179
 C         -3.0712034273       -1.9081762112        0.7292081601
 O         -3.3223157358       -3.0904421433        1.0381913705
 H          1.8886662496       -1.8936644777       -0.8049947920
 C          1.7313936136       -1.7256585169        0.2467311308
 C          0.4831414021       -1.9098798555        0.8188772610
 C          0.3340363742       -1.6760196222        2.1844789991
 C          1.4028260442       -1.2573172493        2.9519756379
 C          2.6433674481       -1.0525862999        2.3720241812
 C          2.8044396296       -1.2875755597        1.0129443819
 N          4.0574028457       -1.1099859819        0.3950367708
 S          4.1972936598       -0.0522863719       -0.8969462475
 O          3.3493922418       -0.4802867477       -1.9778593101
 O          5.6161851103       -0.0063587759       -1.1779909001
 C          3.6746064651        1.5238109456       -0.2440463477
 C          2.3287418861        1.7887667008       -0.0882010552
 C          1.9538469307        2.9923776657        0.4900378449
 C          2.9165277175        3.9018799096        0.8983039221
 C          4.2641181435        3.6186851166        0.7329851731
 C          4.6482712216        2.4167455663        0.1622355434
 H          5.6830859503        2.1541382014        0.0117892975
 H          5.0128909951        4.3272260896        1.0488614006
 H          2.6140243335        4.8353749698        1.3463723240
 H          0.9035797655        3.2025537437        0.6173796730
 H          1.5868856568        1.0752805169       -0.4110930936
 H          4.8079010747       -0.9301618969        1.0478282074
 H          3.4793374719       -0.7182609874        2.9677044227
 H          1.2695808334       -1.0810662962        4.0086586472
 H         -0.6384754106       -1.8274738025        2.6338511145
 C         -0.7185672706       -2.3656874863        0.0278811205
 H         -1.0520520139       -3.3304416203        0.4377338961
 C         -0.4428702732       -2.5366138872       -1.4512965796
 C          0.1640012295       -3.8078518725       -1.9611307025
 C         -1.2760002083       -3.4998970775       -2.2396076455
 H         -1.5625318439       -3.2316281031       -3.2455469699
 H         -2.0321471878       -4.0551592096       -1.7032884820
 H          0.8705591219       -3.7488065144       -2.7755466285
 H          0.3867984136       -4.5798703727       -1.2400268482
 H         -0.1599905382       -1.6095023182       -1.9377504307
 O         -0.6311074130        0.4565509007       -0.4990038650
