  62
        -98.93025936
 C         -2.3913384552       -0.6233341527        0.2540910652
 C         -2.8164114256        0.7276673335        0.2494511981
 C         -4.1909798585        1.0101118433       -0.2056643042
 C         -4.9600507190       -0.0200637790       -0.6034477065
 C         -6.3926107552        0.0088077317       -1.0655476544
 C         -7.3855240882        0.1773729611        0.0962308945
 C         -6.9855352197        1.2179353631        1.1391424478
 H         -7.7042259289        1.1578744541        1.9607912633
 H         -6.0063117193        0.9593815346        1.5466218084
 C         -6.9635324651        2.6619200034        0.6436042100
 H         -6.7424335230        3.2970937463        1.5052811842
 H         -7.9577343322        2.9306542039        0.2795588327
 C         -5.9440645383        2.9780569278       -0.4525237190
 H         -5.8802794691        4.0672298732       -0.5328669960
 H         -6.2836811326        2.6166950161       -1.4193596979
 C         -4.5291923272        2.4810149122       -0.1715719474
 H         -3.8438062644        2.9572839546       -0.8833517115
 H         -4.2114253036        2.8394103230        0.8143481383
 H         -7.4742026752       -0.7852252674        0.6056496727
 H         -8.3624954011        0.4309963932       -0.3184455141
 H         -6.5847737421       -0.9508830512       -1.5501652422
 H         -6.5282196681        0.7886622398       -1.8089538276
 O         -4.5083574090       -1.3048027456       -0.5930589839
 C         -3.2320058291       -1.6503613481       -0.1767885787
 O         -2.9981176901       -2.8700256819       -0.2472382642
 O         -2.0751981990        1.6765336471        0.6283392474
 C         -0.9820756571       -0.8911153207        0.7473507076
 C          0.0222881428       -0.8915858113       -0.3764075156
 C         -0.2113433428       -1.5738751685       -1.5662299360
 C          0.7452579381       -1.5858496080       -2.5651250539
 C          1.9566841622       -0.9402848380       -2.3904544112
 C          2.1967894703       -0.2501263372       -1.2081892467
 C          1.2245303601       -0.2186865295       -0.2180444402
 H          1.4189768410        0.3370356793        0.6875952883
 N          3.4078908184        0.4271487336       -0.9996721053
 S          4.0451417045        0.4216799609        0.5661599089
 O          3.8757119318       -0.8848382253        1.1595820446
 O          3.4881897823        1.5315020690        1.2979448386
 C          5.7666450632        0.7309788683        0.2215882832
 C          6.1693711330        2.0286950351       -0.0325877508
 C          7.5011072785        2.2697108191       -0.3304789584
 C          8.4022663784        1.2158009935       -0.3694445782
 C          7.9834422766       -0.0805315687       -0.1101998554
 C          6.6525526962       -0.3292089764        0.1869764738
 H          6.2826777300       -1.3186819457        0.4029265498
 H          8.6870126584       -0.8969050046       -0.1377782002
 H          9.4383383448        1.4066673677       -0.6004056055
 H          7.8312138231        3.2764808937       -0.5296842169
 H          5.4353518846        2.8160107910        0.0188818216
 H          4.1080026249        0.2096038851       -1.6956145535
 H          2.7074821841       -0.9646707172       -3.1655841798
 H          0.5510940284       -2.1184852517       -3.4840205165
 H         -1.1431844941       -2.1041703311       -1.6931508515
 H         -0.7414053941       -0.0302799209        1.3931513676
 C         -0.8730145843       -2.1414237512        1.6101742031
 C         -0.2287014801       -3.4111239634        1.1510914154
 C          0.4522505739       -2.5589315565        2.1772729418
 H          0.4863555944       -2.9072674743        3.1988187743
 H          1.3315125320       -2.0076796266        1.8741689831
 H         -0.6817827287       -4.3408073528        1.4592704766
 H          0.1857118639       -3.4402682133        0.1558717156
 H         -1.7338257571       -2.2525623970        2.2627798567
