  62
        -98.93706769
 C         -2.4715935998       -1.4559148705        0.1292414513
 C         -2.5492738900       -0.4352423110       -0.8483064792
 C         -3.5436691702        0.6233237390       -0.6022034096
 C         -4.2989390500        0.5770127094        0.5095387305
 C         -5.2866163101        1.6232561195        0.9410087901
 C         -4.5425018303        2.8313128599        1.5453473494
 C         -4.6801169306        4.1236841595        0.7403021288
 H         -5.6742677106        4.5428901294        0.9087447186
 H         -3.9508361106        4.8339696698        1.1357780183
 C         -4.4778143107        3.9926234787       -0.7722964112
 H         -5.3873169007        3.6031276184       -1.2321459609
 H         -4.3391143009        5.0028733486       -1.1631397717
 C         -3.2931556506        3.1263431687       -1.2200462409
 H         -2.8305966808        3.6054092983       -2.0858029812
 H         -2.5297481605        3.0809486892       -0.4421229310
 C         -3.6716258404        1.6959581384       -1.6485797301
 H         -4.6880971805        1.6928955881       -2.0519330900
 H         -2.9977911405        1.3851855381       -2.4525079001
 H         -4.9103109202        3.0173516103        2.5554983293
 H         -3.4856164502        2.5715181901        1.6393634694
 H         -5.8911065503        1.9319727190        0.0911553900
 H         -5.9376785300        1.1666980298        1.6866721904
 O         -4.1901625598       -0.4146452501        1.4304975410
 C         -3.2805459696       -1.4436724401        1.2697377314
 O         -3.2895470894       -2.2816453296        2.1928426318
 O         -1.8396324101       -0.3939481314       -1.8895132193
 C         -1.4854199896       -2.6120864504        0.0326016718
 C         -0.1069776596       -2.1029717100        0.3794426014
 C          0.3781779105       -2.2376040793        1.6763909814
 C          1.6128300105       -1.7204216389        2.0242431710
 C          2.3851462103       -1.0522844593        1.0901779406
 C          1.9018066301       -0.8981893600       -0.2020176494
 C          0.6716721402       -1.4356004704       -0.5544104990
 H          0.2943987700       -1.2897039409       -1.5546673791
 N          2.6699019899       -0.2031710604       -1.1543429899
 S          3.2406912097        1.3166415799       -0.7222501607
 O          2.3846908097        1.9523382903        0.2535015691
 O          3.4307621395        2.0232579594       -1.9703329610
 C          4.8362597898        0.9751387605       -0.0070907407
 C          5.1462968899        1.4561344212        1.2498358591
 C          6.3970481500        1.1836897617        1.7822328191
 C          7.3108946900        0.4397980914        1.0517566393
 C          6.9852360800       -0.0332290192       -0.2108155704
 C          5.7374321199        0.2369382803       -0.7492992004
 H          5.4459579398       -0.1092567402       -1.7267192902
 H          7.6984656100       -0.6114305694       -0.7757794902
 H          8.2825634401        0.2276030618        1.4690494393
 H          6.6518401001        1.5514459522        2.7632365489
 H          4.4009295299        2.0240408914        1.7837500089
 H          2.2285879098       -0.1638700109       -2.0627058898
 H          3.3437134202       -0.6382598990        1.3574430303
 H          1.9770600006       -1.8351939084        3.0338633610
 H         -0.2341388193       -2.7359962790        2.4146287317
 H         -1.7865322594       -3.3217375501        0.8142684222
 C         -1.5391250596       -3.3206955011       -1.3054457179
 C         -0.9229445394       -4.6805464910       -1.4303724273
 C         -2.4133467495       -4.5275092413       -1.4576185572
 H         -2.9315748495       -4.6722157818       -2.3937484471
 H         -2.9765445293       -4.8493607209       -0.5936419870
 H         -0.4151644295       -4.9339573314       -2.3482547272
 H         -0.4738076293       -5.1066826405       -0.5460708971
 H         -1.4701892198       -2.6541937415       -2.1548115382
