  62
        -98.93940487
 C          1.9491593761        0.3477760414       -0.4858184091
 C          1.1892379316        1.3145809735       -1.1873413418
 C          0.8126161743        2.5340701705       -0.4511258287
 C          1.1853484157        2.6529134047        0.8356988361
 C          0.9017510255        3.8174850542        1.7444208296
 C         -0.5227556360        3.7819473891        2.3390587790
 C         -1.5785533159        3.1185555492        1.4541042989
 H         -1.2130704412        2.1325976278        1.1592589781
 H         -2.4667362856        2.9402859591        2.0676712174
 C         -2.0149435703        3.9251141213        0.2292171212
 H         -2.6548602343        4.7439261128        0.5687643845
 H         -2.6209230928        3.2726540792       -0.4046971830
 C         -0.8972488316        4.5408680096       -0.6099879620
 H         -0.3528496066        5.2675194350       -0.0123127772
 H         -1.3709617413        5.0965390657       -1.4248712535
 C          0.0656551972        3.5553460215       -1.2716247673
 H         -0.4789599188        2.9731572912       -2.0225664696
 H          0.8156927474        4.1322418017       -1.8272383654
 H         -0.8319376862        4.7995582665        2.5829692906
 H         -0.4827892369        3.2083327911        3.2675863641
 H          1.0804138766        4.7409325491        1.1982593462
 H          1.6230856303        3.7677350638        2.5625546321
 O          1.8619351182        1.6750985772        1.4937710180
 C          2.2267198298        0.4893482429        0.8753323166
 O          2.7949205001       -0.3185548864        1.6336654704
 O          0.8301209174        1.1642036494       -2.3872366258
 C          2.2998244143       -0.9363042139       -1.2215375080
 C          1.7710283139       -2.0971240480       -0.4189780133
 C          2.5459189031       -3.1309674443        0.0860004054
 C          1.9678605757       -4.1043612301        0.8838364653
 C          0.6265989524       -4.0508258609        1.2157783241
 C         -0.1581800733       -3.0207680541        0.7080225330
 C          0.4110376693       -2.0842865686       -0.1351073186
 H         -0.1991888232       -1.2895680932       -0.5364672329
 N         -1.5204762705       -2.9087935582        1.0241477935
 S         -2.2033622366       -1.3860064150        1.2027459110
 O         -1.2414888876       -0.4013233018        1.6363408413
 O         -3.3337149333       -1.6063059875        2.0820116396
 C         -2.8215800139       -1.0070650514       -0.4235862310
 C         -2.3604970125        0.1000169806       -1.1059440261
 C         -2.8583335471        0.3659396503       -2.3715741424
 C         -3.8088937095       -0.4746097952       -2.9290975598
 C         -4.2690804060       -1.5796389526       -2.2281863555
 C         -3.7723255349       -1.8511614528       -0.9639725877
 H         -4.1062229771       -2.6950969061       -0.3838988832
 H         -5.0098333742       -2.2298873569       -2.6648108132
 H         -4.1914602678       -0.2651534680       -3.9155484408
 H         -2.4875072916        1.2200665223       -2.9158121879
 H         -1.6120346672        0.7291078594       -0.6487802409
 H         -1.8477346837       -3.5518686355        1.7301603463
 H          0.1902332409       -4.7895057809        1.8710161740
 H          2.5791577825       -4.9023957881        1.2776873267
 H          3.6041412733       -3.1584089437       -0.1159800169
 H          1.7142314700       -0.8759085054       -2.1547094854
 C          3.7544948999       -1.0765409808       -1.6370465200
 C          4.6039397391        0.1338841623       -1.8825236855
 C          4.9002679319       -0.7668230761       -0.7228751357
 H          5.7780035044       -1.3946152692       -0.7766631373
 H          4.6691661374       -0.4235780464        0.2726192956
 H          5.2770599111        0.1292078076       -2.7266552196
 H          4.1649297427        1.0996574310       -1.6765508927
 H          3.8959612451       -1.9069366943       -2.3224243294
