  62
        -98.94018722
 C         -1.5172475028       -1.5843661363       -0.1372922628
 C         -1.5132176573       -0.1942670547       -0.3948641932
 C         -2.8324253307        0.4572602021       -0.5021152710
 C         -3.9478534524       -0.2775420797       -0.3362174245
 C         -5.4124847391        0.0998219855       -0.4203450904
 C         -5.8386104193        1.5650809132       -0.4537755589
 C         -5.6001604966        2.3298458077        0.8483585727
 H         -5.8324342292        3.3827422220        0.6743076849
 H         -6.2989118179        1.9561748745        1.6012691560
 C         -4.1939007480        2.2198829545        1.4327304989
 H         -4.1755145461        2.7885950955        2.3664617585
 H         -3.9831250334        1.1790943436        1.6869826373
 C         -3.0713536933        2.7501129482        0.5433312738
 H         -3.2821980684        3.7843203599        0.2645629461
 H         -2.1513936755        2.7404763603        1.1338764887
 C         -2.8053040026        1.9402313449       -0.7363191055
 H         -3.4923327612        2.2192787184       -1.5313745037
 H         -1.7913618327        2.1712187142       -1.0755137949
 H         -6.9149419848        1.5718397428       -0.6465850249
 H         -5.3673608349        2.0739533103       -1.2893207412
 H         -5.7934507554       -0.3926307943       -1.3218966057
 H         -5.8982684609       -0.3953990891        0.4266029811
 O         -3.8970019512       -1.6198847621       -0.0817853450
 C         -2.6982108543       -2.3020979648        0.0293561158
 O         -2.8169795608       -3.5187874160        0.2810117753
 H          2.3948071890       -1.3603018240       -0.2198274252
 C          1.9501403599       -1.2128488147        0.7491459876
 C          0.6654863823       -1.6567349863        1.0154511926
 C          0.1456482091       -1.4676469395        2.2941506592
 C          0.8878412807       -0.8365461536        3.2725991733
 C          2.1608003734       -0.3686349102        2.9946762956
 C          2.6915197734       -0.5605563030        1.7255893390
 N          3.9827401439       -0.1117352913        1.4161012599
 S          4.3457395805        0.4545251006       -0.1121239664
 O          4.4928102952       -0.6489249201       -1.0286456531
 O          5.5337927623        1.2592791865        0.0876739048
 C          2.9975305481        1.5071589789       -0.6154354064
 C          2.6088812089        2.5288224796        0.2270034979
 C          1.5935312108        3.3787548143       -0.1765927195
 C          0.9925412430        3.1990353349       -1.4120046073
 C          1.3944141267        2.1694610651       -2.2461354780
 C          2.4051989768        1.3124687952       -1.8447901716
 H          2.7414065662        0.4927708227       -2.4603634415
 H          0.9164495248        2.0238021673       -3.2019997536
 H          0.2008289786        3.8625296080       -1.7240599910
 H          1.2699327875        4.1758940324        0.4737712903
 H          3.1002893802        2.6509835090        1.1789279309
 H          4.4320010706        0.4343108943        2.1359541072
 H          2.7383457872        0.1361956107        3.7539045783
 H          0.4698729716       -0.6966251967        4.2582549074
 H         -0.8556017131       -1.8190396984        2.5059090934
 C         -0.1975720288       -2.3256081265       -0.0258275615
 H         -0.4399878059       -3.3405399272        0.3212271707
 C          0.4609350492       -2.4162606839       -1.3863129200
 C          1.4255555495       -3.5227636697       -1.6855832243
 C          0.0678650957       -3.5188216194       -2.3205917880
 H         -0.0091516438       -3.2992504740       -3.3749272075
 H         -0.6652252639       -4.2301641177       -1.9683649463
 H          2.2872663948       -3.3046597800       -2.2989307190
 H          1.6172806425       -4.2425941144       -0.9040494717
 H          0.6538838407       -1.4409722058       -1.8193614228
 O         -0.4597983357        0.4764815394       -0.5358285763
