  62
        -98.94648816
 C         -1.2230495660       -1.7621855246       -0.3074727443
 C         -0.4603585000       -2.0015773077        0.8645294411
 C          0.9035055914       -2.5132190502        0.6444095161
 C          1.3584530946       -2.7220031250       -0.6032439624
 C          2.6972089804       -3.2956881717       -0.9827147130
 C          3.8505522826       -2.2837869290       -1.0014614146
 C          4.3337424654       -1.8239151787        0.3743192451
 H          4.5303977698       -2.6930873424        1.0027610354
 H          5.2832973296       -1.3059744565        0.2267543845
 C          3.3634318297       -0.8751448634        1.0901704679
 H          2.6628991538       -0.4565018252        0.3650836804
 H          3.9130711031       -0.0301038650        1.5124083599
 C          2.5669007062       -1.5019927304        2.2344821285
 H          1.8706417035       -0.7449330122        2.6057635578
 H          3.2434789297       -1.7669172747        3.0509472128
 C          1.7629943955       -2.7505037370        1.8489503962
 H          2.4363858090       -3.5907237809        1.6749252144
 H          1.1019299745       -2.9983857358        2.6835243455
 H          4.6884657935       -2.7585843139       -1.5168823096
 H          3.5476683582       -1.4125823536       -1.5864986836
 H          2.9444537636       -4.1139812269       -0.3052514266
 H          2.5812005890       -3.7027688703       -1.9896301050
 O          0.6019279705       -2.4643727183       -1.7032291021
 C         -0.6882357137       -1.9752905116       -1.5822851164
 O         -1.2588926435       -1.7782575970       -2.6734934495
 O         -0.8732200045       -1.8248131881        2.0399438813
 C         -2.6447836655       -1.2198718124       -0.3080449318
 C         -2.6313494586        0.2901010153       -0.3752188048
 C         -3.3859715476        0.9646819055       -1.3277106769
 C         -3.3450589931        2.3446539681       -1.4101554721
 C         -2.5256696229        3.0730475592       -0.5671410864
 C         -1.7644537149        2.4086165015        0.3879271260
 C         -1.8448774140        1.0273905105        0.4988853747
 H         -1.2693814052        0.5278623725        1.2633614267
 N         -0.9007732591        3.1232582046        1.2369664271
 S          0.6834133967        2.6081448070        1.4114784951
 O          0.7310206312        1.3922843164        2.1761450495
 O          1.3671340900        3.7489071296        1.9821587959
 C          1.2665393529        2.3413137633       -0.2537814624
 C          1.0185377854        1.1376315680       -0.8828049313
 C          1.4227601541        0.9706964257       -2.1984168388
 C          2.0727801780        2.0022415951       -2.8578047484
 C          2.3218070560        3.2034667726       -2.2107591459
 C          1.9098139018        3.3791820149       -0.8998844147
 H          2.0860975725        4.2939454861       -0.3574855771
 H          2.8313690161        4.0019301807       -2.7255470425
 H          2.3858615367        1.8646930359       -3.8807165771
 H          1.2159292401        0.0360954560       -2.6980808562
 H          0.5142790666        0.3470338536       -0.3489357186
 H         -0.9233641047        4.1235909823        1.0965902234
 H         -2.4708553304        4.1481525219       -0.6460737883
 H         -3.9391099398        2.8568917806       -2.1512709548
 H         -3.9944617352        0.3982169112       -2.0165355558
 H         -3.1020319618       -1.5848273839       -1.2387713913
 C         -3.4972239599       -1.6894372009        0.8534313079
 C         -4.9854518911       -1.7384076508        0.6882150785
 C         -4.1968015555       -3.0106663894        0.7635827522
 H         -4.2672783984       -3.6154689492        1.6549683726
 H         -4.0658097441       -3.5842730862       -0.1427453837
 H         -5.6040403434       -1.4662073004        1.5294835617
 H         -5.3952510106       -1.4545170326       -0.2692161477
 H         -3.1061421932       -1.3994952137        1.8195946402
