  62
        -98.93240142
 C          1.7348904807        0.3763825910        0.8361747492
 C          2.7244588106        1.1306077405        0.1582193184
 C          4.1117586006        0.6510844007        0.3006744588
 C          4.3630702708       -0.4453415886        1.0364308898
 C          5.7051036208       -1.1011722783        1.1980663303
 C          6.0462404008       -1.9203393195       -0.0632178990
 C          7.2461012507       -1.3951588601       -0.8520572196
 H          8.1631953708       -1.6668729196       -0.3250749294
 H          7.2546340007       -1.9108098510       -1.8147383191
 C          7.2762138106        0.1168623297       -1.0955284510
 H          8.0183706905        0.2978831090       -1.8760027112
 H          7.6367378406        0.6253898805       -0.2001155415
 C          5.9477365605        0.7550077292       -1.5212641615
 H          6.1626222604        1.5142654685       -2.2759116622
 H          5.2990684505        0.0152364687       -1.9907833807
 C          5.1811569705        1.4566299502       -0.3844852420
 H          5.8907909205        1.8286806909        0.3594888076
 H          4.6556886904        2.3214829297       -0.8000827728
 H          6.2491513609       -2.9546975292        0.2188182519
 H          5.1646521107       -1.9391110101       -0.7075849589
 H          5.6447598709       -1.7531969075        2.0697573509
 H          6.4650427608       -0.3445612581        1.3805619095
 O          3.3858617909       -1.1452411781        1.6710451505
 C          2.0606900608       -0.7547877482        1.5887138302
 O          1.2742031609       -1.4819576477        2.2295643710
 O          2.4858847305        2.1523933198       -0.5338076125
 C          0.2566335807        0.7330695209        0.8077911790
 C         -0.4185220394        0.1088673597       -0.3864258304
 C          0.0785516405        0.2981398486       -1.6731521406
 C         -0.5394949795       -0.2966893324       -2.7569940300
 C         -1.6657788895       -1.0818667224       -2.5827705792
 C         -2.1685414694       -1.2798333312       -1.3021164290
 C         -1.5461912393       -0.6809619502       -0.2138158496
 H         -1.9302405592       -0.8672015793        0.7780489906
 N         -3.2975224893       -2.0833285011       -1.1017816581
 S         -4.3750829192       -1.7834700501        0.1310916417
 O         -3.8345932891       -2.2106790889        1.3970043820
 O         -5.5901300492       -2.4475839605       -0.2910003076
 C         -4.6371389393       -0.0177321801        0.1461256001
 C         -4.8384733095        0.6448352688       -1.0489744005
 C         -5.0729776796        2.0101597388       -1.0277073818
 C         -5.1139251995        2.6867406399        0.1816256276
 C         -4.9181703394        2.0069051510        1.3734999382
 C         -4.6737242893        0.6422858710        1.3575410295
 H         -4.5010238692        0.0779629719        2.2603206100
 H         -4.9472332794        2.5330219319        2.3141247877
 H         -5.2954697696        3.7494836599        0.1958849966
 H         -5.2221534197        2.5418259280       -1.9534696723
 H         -4.8109749195        0.0954761880       -1.9756028600
 H         -3.7481322893       -2.4206707819       -1.9387993778
 H         -2.1456043995       -1.5500498132       -3.4286904387
 H         -0.1430648296       -0.1446484533       -3.7494950402
 H          0.9526479104        0.9158154285       -1.8103691812
 H         -0.1688744592        0.2599806117        1.7073687795
 C          0.0068950606        2.2314974910        0.9226273976
 C         -0.5901513896        3.0614428799       -0.1701430731
 C         -1.3992700995        2.7382133710        1.0470001673
 H         -1.6059726695        3.5218984516        1.7595782666
 H         -2.1937653394        2.0145647208        0.9414479180
 H         -0.2115445197        4.0642615399       -0.2938405440
 H         -0.8496508096        2.5765626491       -1.0973415126
 H          0.7552398506        2.7177000416        1.5397598071
