  62
        -98.94238539
 C          1.9651445255        0.6225502323       -0.0305047011
 C          2.9788200412        0.5754458148        0.9629086942
 C          4.0893173734       -0.3508462158        0.7213156079
 C          4.0887540975       -1.1144037076       -0.3858095901
 C          5.1355570029       -2.1255345296       -0.7673639812
 C          6.3556048049       -1.5238653578       -1.4781770147
 C          7.2984319032       -0.7183311446       -0.5832986853
 H          7.5689245867       -1.3155773533        0.2880174674
 H          8.2120614961       -0.5447250307       -1.1553682717
 C          6.7367431983        0.6357776403       -0.1277958849
 H          5.8920958470        0.9117516207       -0.7632915251
 H          7.4988657255        1.4077433735       -0.2558484313
 C          6.2902045634        0.6784253855        1.3336797720
 H          5.8759965588        1.6692226784        1.5367918599
 H          7.1548290224        0.5349578374        1.9854334844
 C          5.2248810774       -0.3633663653        1.6994409428
 H          5.6712558941       -1.3563631759        1.7509479031
 H          4.8196265719       -0.1099433771        2.6821137859
 H          6.0058938940       -0.8940852870       -2.2995335738
 H          6.9205078833       -2.3521250990       -1.9122464952
 H          4.6535630115       -2.8307286716       -1.4481071297
 H          5.4611221768       -2.6681668918        0.1207218185
 O          3.0883844975       -1.0629426698       -1.3021574805
 C          2.0119370866       -0.1928133839       -1.1618574797
 O          1.1942996648       -0.2669238478       -2.0988436145
 O          2.9556607345        1.2837936306        2.0043350961
 C          0.8343823185        1.6091940214        0.2043766585
 C         -0.3571696688        0.9489861708        0.8494841367
 C         -0.9517454133        1.4965008569        1.9802178746
 C         -2.0541492972        0.8924609309        2.5603271084
 C         -2.5890725699       -0.2637544773        2.0220401513
 C         -2.0045540735       -0.8162210626        0.8890709637
 C         -0.8980870525       -0.2106887085        0.3109406778
 H         -0.4508899846       -0.6437218064       -0.5716513388
 N         -2.5493526640       -1.9820479345        0.3224562513
 S         -4.2083777562       -2.0180741262        0.0956042617
 O         -4.8530977607       -2.3799925618        1.3337637625
 O         -4.4255699292       -2.9180132577       -1.0147452419
 C         -4.6516411258       -0.3477302735       -0.3478951762
 C         -4.1283037929        0.1757304880       -1.5137299581
 C         -4.4234748211        1.4866409645       -1.8514990758
 C         -5.2306856622        2.2482665517       -1.0203850870
 C         -5.7535776785        1.7062738533        0.1432488093
 C         -5.4613064923        0.3959163616        0.4863793826
 H         -5.8448756905       -0.0647900723        1.3819729853
 H         -6.3830661845        2.3002152747        0.7859758684
 H         -5.4516838494        3.2703557178       -1.2839028264
 H         -4.0149974395        1.9100095758       -2.7549625077
 H         -3.5045325795       -0.4429396246       -2.1400927687
 H         -2.0608090149       -2.2925818215       -0.5047937929
 H         -3.4416052622       -0.7530925506        2.4642061445
 H         -2.5013530991        1.3250795629        3.4419067905
 H         -0.5345918918        2.3936529288        2.4131975134
 H          1.2440882440        2.3266956429        0.9327089313
 C          0.4647275165        2.3990654859       -1.0448075193
 C         -0.8011409470        2.1960506344       -1.8159806747
 C         -0.6221763766        3.4319234429       -0.9899612217
 H         -0.4644156493        4.3749930656       -1.4904675423
 H         -1.1911830231        3.5029244018       -0.0754112057
 H         -0.7451413363        2.2705704252       -2.8912476379
 H         -1.4970770241        1.4496813743       -1.4677628510
 H          1.3440031221        2.6497884058       -1.6304757329
