  62
        -98.94466978
 C         -2.0149876992       -0.7458105212        0.5629229818
 C         -1.9440835300       -0.0409197911       -0.6629197382
 C         -1.9686291009        1.4217194488       -0.5584377882
 C         -1.9995320110        2.0051611388        0.6529004818
 C         -1.9815031419        3.4855077888        0.9236597618
 C         -3.3588028123        4.1571835179        0.8309320322
 C         -3.9147248428        4.3110146776       -0.5853330577
 H         -4.7710034032        4.9851902970       -0.5211229574
 H         -3.1666291133        4.7917489881       -1.2162286379
 C         -4.3692058622        2.9960474173       -1.2338113875
 H         -4.4889281414        2.2319202272       -0.4624167475
 H         -5.3466543324        3.1383640667       -1.6999174773
 C         -3.4256588421        2.4630254679       -2.3120438878
 H         -3.3946702628        3.1616294579       -3.1509658378
 H         -3.8234607116        1.5131239976       -2.6775488677
 C         -1.9905705118        2.2182969288       -1.8273864482
 H         -1.4590890816        1.6383755892       -2.5859992483
 H         -1.4694832024        3.1655068392       -1.6885724783
 H         -4.0644317218        3.5881270075        1.4404969624
 H         -3.2648928929        5.1522193980        1.2719152422
 H         -1.6033009417        3.6085887191        1.9410980417
 H         -1.2870582724        3.9706578593        0.2367803816
 O         -2.0351156502        1.2916073288        1.8113749418
 C         -2.0442328993       -0.0938096512        1.7936040518
 O         -2.0822558387       -0.6227781712        2.9253772118
 H          0.4574391312       -1.1962345896        0.9510636511
 C          0.5006230615       -1.9890483296        0.2170948011
 C         -0.6564350782       -2.6850157503       -0.1093597586
 C         -0.5716113078       -3.7145232502       -1.0371763186
 C          0.6365845423       -4.0053000095       -1.6479028689
 C          1.7731870619       -3.2725484387       -1.3610057892
 C          1.7023016015       -2.2547270188       -0.4155947992
 N          2.8380446011       -1.4975329080       -0.0770637995
 S          2.6130596201        0.1179507318        0.3637160005
 O          2.2734910105        0.1706813616        1.7652064606
 O          1.7024455395        0.7747524012       -0.5462216692
 C          4.2700928297        0.7374242429        0.1335017401
 C          5.2212923801        0.4544995935        1.0958199998
 C          6.5179142198        0.9064299043        0.9092215495
 C          6.8403080390        1.6298046946       -0.2296841406
 C          5.8748225086        1.9078090139       -1.1854136104
 C          4.5762590789        1.4567850631       -1.0059270900
 H          3.7897972686        1.6530850626       -1.7170890498
 H          6.1269139980        2.4732258241       -2.0680109504
 H          7.8498174787        1.9815953252       -0.3718658309
 H          7.2703271301        0.6941641748        1.6514069493
 H          4.9199158707       -0.1014718367        1.9682559499
 H          3.5892369810       -1.5975870776       -0.7465183397
 H          2.7063633819       -3.4818708781       -1.8613214095
 H          0.6883746026       -4.8024589994       -2.3739655789
 H         -1.4536266675       -4.2779881708       -1.2943351183
 C         -1.9417077583       -2.2625037811        0.5620445318
 H         -1.8976733678       -2.5682289711        1.6182289918
 C         -3.1813470780       -2.8577159619       -0.0721313179
 C         -3.6824416971       -4.2020656623        0.3603043123
 C         -4.4311234877       -2.9632351727        0.7473508225
 H         -5.3787151980       -2.7600123234        0.2716767427
 H         -4.3771964377       -2.6292344927        1.7736541325
 H         -3.1283153565       -4.7184091519        1.1295013621
 H         -4.1213502468       -4.8515885025       -0.3819029376
 H         -3.2868414485       -2.5789249520       -1.1142599678
 O         -1.8666909800       -0.6040559111       -1.7864463982
