  62
        -98.93204002
 C         -2.2205038649       -1.0129717504       -0.3680636539
 C         -3.6046515763       -1.1230111725       -0.0820059051
 C         -4.4505906506        0.0588481556       -0.3363195267
 C         -3.8660338846        1.1827807484       -0.7895509450
 C         -4.5022914315        2.5162208994       -1.0796065788
 C         -4.8215586442        3.3099708747        0.1970583041
 C         -5.4674646280        2.4954187456        1.3147031379
 H         -4.8063416052        1.6694217281        1.5838153959
 H         -5.5485685575        3.1426263818        2.1920868986
 C         -6.8604504458        1.9527686998        1.0037129748
 H         -7.5240600368        2.7865126764        0.7639202321
 H         -7.2352064919        1.4824852726        1.9164413729
 C         -6.9422027386        0.9243722938       -0.1266820659
 H         -6.8966862501        1.4051935833       -1.1001824825
 H         -7.9248316891        0.4480731743       -0.0618439576
 C         -5.9098688118       -0.1955809433       -0.0442603202
 H         -5.9446378893       -0.6433651759        0.9554760086
 H         -6.2112287820       -0.9983510096       -0.7281928167
 H         -5.4706921327        4.1456636804       -0.0698535229
 H         -3.8846969783        3.7197189785        0.5830451031
 H         -5.3939374914        2.3813865368       -1.6846652157
 H         -3.7810729674        3.0852086240       -1.6705244841
 O         -2.5249731051        1.2573559558       -1.0174765826
 C         -1.6678942090        0.1861585477       -0.8206411983
 O         -0.4803030824        0.4441364327       -1.0930513989
 O         -4.1261634867       -2.1753749697        0.3757956853
 C         -1.3570401819       -2.2314995775       -0.0876504094
 C         -0.1947343143       -1.8387688675        0.7868281801
 C         -0.3881589695       -1.6912214462        2.1569580266
 C          0.6460413938       -1.2756575093        2.9747220154
 C          1.8902928430       -0.9884401678        2.4415680403
 C          2.0877689063       -1.1186363555        1.0738256660
 C          1.0540708962       -1.5583099773        0.2569943942
 H          1.2116698664       -1.6419669939       -0.8069279297
 N          3.3464162943       -0.8223331030        0.5169976525
 S          4.1522057802        0.5365451535        1.1159153221
 O          4.8629477401        0.1471447358        2.3100465801
 O          3.2422201379        1.6497368492        1.2648363935
 C          5.3127294443        0.8494162329       -0.1995154582
 C          4.9111678283        1.6327006251       -1.2653351996
 C          5.8017505146        1.8591247540       -2.3028266710
 C          7.0698321277        1.2986992720       -2.2586173070
 C          7.4572243297        0.5136657440       -1.1830604326
 C          6.5720868582        0.2840008117       -0.1415567814
 H          6.8293895791       -0.3121695484        0.7182282656
 H          8.4443003519        0.0814096120       -1.1523806322
 H          7.7603791214        1.4779708386       -3.0674995207
 H          5.5029622789        2.4702953759       -3.1393506586
 H          3.9178563060        2.0540906378       -1.2551833663
 H          3.3029601805       -0.7905817541       -0.4928951936
 H          2.7017885527       -0.6445712889        3.0629036410
 H          0.4827940419       -1.1660961062        4.0365786354
 H         -1.3653069111       -1.8951300332        2.5732055137
 H         -2.0129453519       -2.8969834423        0.4963574674
 C         -0.9337601284       -3.0170157216       -1.3198911731
 C         -1.8970808738       -3.2326906189       -2.4477587554
 C         -0.6769810434       -2.3889626270       -2.6554846775
 H          0.1242790206       -2.7909823190       -3.2586371599
 H         -0.7968357838       -1.3210950613       -2.7467895115
 H         -1.9393302782       -4.2055528234       -2.9135983775
 H         -2.8542489602       -2.7360590359       -2.3813522694
 H         -0.3036625200       -3.8607947583       -1.0546123671
