  62
        -98.94848412
 C          0.8339326854        1.2192327987        0.5670689233
 C          1.2042889484        0.5319645753       -0.6135830497
 C          2.1455074214       -0.5797590774       -0.4269081033
 C          2.4785361311       -0.9700217920        0.8161871991
 C          3.4221637603       -2.0874219904        1.1700498603
 C          4.8968172065       -1.6609856950        1.1913326138
 C          5.5172965503       -1.4134598991       -0.1844553361
 H          6.5964291195       -1.3345989754       -0.0384873723
 H          5.3378000794       -2.2786925310       -0.8231453308
 C          5.0200902910       -0.1412266131       -0.8853457235
 H          4.5422050712        0.5147999500       -0.1539260073
 H          5.8733813956        0.4052322556       -1.2935280367
 C          4.0475799355       -0.3892565450       -2.0389694513
 H          4.5586907949       -0.9328108290       -2.8364546791
 H          3.7377860568        0.5802414266       -2.4368531844
 C          2.7837625819       -1.1684282632       -1.6480777039
 H          2.0643209481       -1.0896927364       -2.4657258046
 H          3.0270278383       -2.2175438685       -1.4872711892
 H          4.9916317248       -0.7605426784        1.8028547606
 H          5.4606814090       -2.4567668173        1.6837097445
 H          3.1456136539       -2.4264772303        2.1708229280
 H          3.2980679235       -2.9154681706        0.4722203557
 O          1.9709314715       -0.3778426523        1.9320532597
 C          1.1966194769        0.7677639702        1.8350312699
 O          0.8923235752        1.2788350196        2.9333813689
 O          0.7941687632        0.8418567508       -1.7607965610
 C          0.0209054172        2.4970975449        0.4737433411
 C         -1.3077075234        2.2391962780       -0.1917699621
 C         -1.8142841212        3.0230666032       -1.2203233752
 C         -3.0534953313        2.7416959742       -1.7685686977
 C         -3.8107698019        1.6828617862       -1.3037694361
 C         -3.3167626117        0.8994977440       -0.2658908571
 C         -2.0744841882        1.1802270256        0.2790803832
 H         -1.7012632561        0.5741278483        1.0926086641
 N         -4.0734701518       -0.1639909093        0.2458374875
 S         -3.3457829803       -1.4997430947        0.9154038450
 O         -4.3820310182       -2.5122161158        0.8921755076
 O         -2.8123383956       -1.1906268964        2.2190478539
 C         -2.0363650354       -2.0032702310       -0.1863026286
 C         -0.9009330400       -2.5597659687        0.3648176158
 C          0.0726157266       -3.0734236493       -0.4756424875
 C         -0.0987060104       -3.0103996265       -1.8490201412
 C         -1.2349444357       -2.4297689725       -2.3884763033
 C         -2.2197731998       -1.9300058101       -1.5524927516
 H         -3.1173881545       -1.4876732002       -1.9523580757
 H         -1.3595859056       -2.3691640373       -3.4574977523
 H          0.6579568591       -3.4155656147       -2.5017081435
 H          0.9552444333       -3.5239016256       -0.0518638337
 H         -0.7997374198       -2.5765634403        1.4391515901
 H         -4.9132176580       -0.3927483572       -0.2644701302
 H         -4.7777282668        1.4647770896       -1.7303660291
 H         -3.4339367794        3.3549403229       -2.5710497509
 H         -1.2390780095        3.8531446882       -1.5951712015
 H         -0.1800644821        2.8044995442        1.5110609166
 C          0.8426909371        3.5743573704       -0.2050976949
 C          0.6257246369        5.0178090118        0.1322366694
 C          1.8648223441        4.3167810737        0.6000509097
 H          2.8073551389        4.5657595843        0.1358606472
 H          1.9482221817        4.0645367380        1.6477003863
 H          0.7212343127        5.7523684552       -0.6530736207
 H         -0.1304172651        5.2514360717        0.8665089514
 H          1.1022802945        3.3185213351       -1.2258971486
