  62
        -98.93666219
 C          1.7194538389        0.8102693806       -0.1237616449
 C          2.8561595005        0.9044201892        0.7199488331
 C          4.0675696862        0.1711726670        0.3117553665
 C          4.0303906215       -0.5678757287       -0.8110262256
 C          5.1217735626       -1.3993160800       -1.4357033474
 C          5.9507497734       -2.2734479626       -0.4821835246
 C          7.3870704670       -1.7802648542       -0.2994106490
 H          8.0098487078       -2.6239515866        0.0063371085
 H          7.7609214661       -1.4330734112       -1.2649176195
 C          7.5659646283       -0.6742819613        0.7392149274
 H          7.4326829624       -1.0932437927        1.7390285638
 H          8.5974518686       -0.3206875112        0.6704069133
 C          6.6260935590        0.5238187636        0.5892758086
 H          6.5096721487        0.7890374854       -0.4609113429
 H          7.0943587381        1.3778516763        1.0832231509
 C          5.2480452382        0.3109601729        1.2335486099
 H          5.2778090008       -0.5549031775        1.9015488602
 H          5.0024595927        1.1687805321        1.8673502250
 H          5.4501620075       -2.3481692443        0.4820946963
 H          5.9911148480       -3.2795246219       -0.9030279843
 H          4.6133252707       -2.0292660387       -2.1692908761
 H          5.7826647399       -0.7367936601       -2.0001508011
 O          2.9153049697       -0.6376611030       -1.5895410923
 C          1.7460076692        0.0367182381       -1.2828938602
 O          0.8370317768       -0.1527195542       -2.1177984365
 H         -0.7640781437       -0.5808679347       -0.6996333582
 C         -1.0998674757       -0.3521705330        0.3007444928
 C         -0.5402565659        0.7222460735        0.9773404853
 C         -0.9860389172        1.0004100162        2.2638240251
 C         -1.9673097843        0.2229040391        2.8551668152
 C         -2.5230275745       -0.8468260885        2.1767508972
 C         -2.0763574619       -1.1370851278        0.8942965493
 N         -2.6496865822       -2.2146341349        0.1843705732
 S         -4.3007139181       -2.0720312104       -0.0786545008
 O         -5.0043398536       -2.4528623033        1.1204804629
 O         -4.5827733583       -2.8619295655       -1.2562145539
 C         -4.5445821626       -0.3347827259       -0.4016139678
 C         -5.1400684190        0.4649090746        0.5521741714
 C         -5.2477451209        1.8252144188        0.3118223862
 C         -4.7548742775        2.3592852232       -0.8682863158
 C         -4.1584516707        1.5422745415       -1.8164610874
 C         -4.0477913941        0.1818321536       -1.5817498165
 H         -3.5906682234       -0.4817719943       -2.2988282669
 H         -3.7731908563        1.9580033195       -2.7339503219
 H         -4.8365594075        3.4192010586       -1.0514785106
 H         -5.7100943517        2.4641794304        1.0465708589
 H         -5.5074528076        0.0079870567        1.4562355594
 H         -2.1794894237       -2.3913970240       -0.6927016009
 H         -3.2949639532       -1.4590912526        2.6143987894
 H         -2.3037098594        0.4523548697        3.8545564196
 H         -0.5517000746        1.8281069024        2.8048526101
 C          0.4908712759        1.5952599974        0.3032019614
 H          0.8574385568        2.3148792992        1.0471225326
 C         -0.1560200889        2.3643900148       -0.8339365854
 C         -1.0292846463        3.5382947181       -0.5130673974
 C          0.3129633152        3.7526172798       -1.1444865645
 H          0.3579621864        4.0609338921       -2.1782054715
 H          1.1059936431        4.1600575000       -0.5343886412
 H         -1.1482681298        3.8033561518        0.5262020083
 H         -1.9117131173        3.6990627415       -1.1119429408
 H         -0.4405184178        1.7361205952       -1.6677087108
 O          2.8619092977        1.5898830415        1.7775666406
