  62
        -98.94963221
 C         -1.6880116014       -1.2284711625        0.3053163688
 C         -1.3276888585       -0.1542599551       -0.5412620551
 C         -1.8984668545        1.1539476496       -0.2004926799
 C         -2.6726477955        1.2673941286        0.8938642370
 C         -3.3423828267        2.5330462664        1.3431737184
 C         -4.7482441049        2.6679211648        0.7412930536
 C         -4.7975004138        2.4386534376       -0.7691729955
 H         -4.5435160163        1.3971163578       -0.9783229313
 H         -5.8314334262        2.5888939135       -1.0870168905
 C         -3.8734926805        3.3578702021       -1.5799062829
 H         -4.4266166377        3.7396531587       -2.4405698323
 H         -3.5820528215        4.2168191601       -0.9744594503
 C         -2.6183027469        2.6736316101       -2.1241326804
 H         -2.1540476053        3.3445871741       -2.8515502123
 H         -2.9007418750        1.7599669083       -2.6527672518
 C         -1.5473817283        2.3167336870       -1.0851304804
 H         -1.3049899635        3.1945103080       -0.4817670075
 H         -0.6437183208        2.0193016159       -1.6251908210
 H         -5.1278672311        3.6646168776        0.9736519894
 H         -5.4008242987        1.9350522665        1.2214723222
 H         -3.4208336847        2.5101648707        2.4316964027
 H         -2.7256075181        3.3824259547        1.0550285162
 O         -2.9738522765        0.2187973844        1.7023689510
 C         -2.4852458743       -1.0492225333        1.4335942357
 O         -2.8258508763       -1.9208094037        2.2613181668
 O         -0.5618077682       -0.2843825753       -1.5330328802
 C         -1.1244871073       -2.6126664217        0.0402615131
 C          0.3833489818       -2.5502540890       -0.0148976614
 C          1.1439308692       -3.2749959832       -0.9244596821
 C          2.5234402054       -3.1597101811       -0.9362874234
 C          3.1705211073       -2.3054791539       -0.0621531887
 C          2.4187515194       -1.5845529236        0.8580577747
 C          1.0426723963       -1.7346953537        0.8959434268
 H          0.4752527420       -1.1686419399        1.6207126075
 N          3.0215782548       -0.6790407713        1.7576594737
 S          2.6173078280        0.9392005416        1.5767196420
 O          3.4253390672        1.6376262123        2.5543605142
 O          1.1918642971        1.1095560717        1.6882845949
 C          3.1928220814        1.3501503752       -0.0617470123
 C          4.4220582383        1.9688381489       -0.1912240853
 C          4.9157314976        2.2255381187       -1.4596937146
 C          4.1798306716        1.8500207040       -2.5737505156
 C          2.9509372855        1.2262290349       -2.4260173200
 C          2.4471516345        0.9697340377       -1.1594393604
 H          1.4901025123        0.4889205344       -1.0259757034
 H          2.3719079720        0.9303640330       -3.2862148452
 H          4.5645841024        2.0445262610       -3.5624698488
 H          5.8704935682        2.7127531023       -1.5753101673
 H          4.9564142239        2.2432645419        0.7040790997
 H          4.0289270602       -0.7601851395        1.7985799120
 H          4.2439929068       -2.1934322624       -0.0891960464
 H          3.1003900185       -3.7283346567       -1.6493743799
 H          0.6546034336       -3.9266344158       -1.6298171984
 H         -1.4136414982       -3.2313434303        0.9029457442
 C         -1.7439923188       -3.1986470279       -1.2127605061
 C         -1.9579414155       -4.6767881454       -1.3349620082
 C         -3.1292141111       -3.7639879000       -1.1349375967
 H         -3.8029914987       -3.5962269970       -1.9617422725
 H         -3.6131743722       -3.7517058018       -0.1687862235
 H         -1.8316801826       -5.1384515292       -2.3026864192
 H         -1.6544629918       -5.2969122875       -0.5050278490
 H         -1.4799722634       -2.6416044728       -2.1044505012
