  62
        -98.93326117
 C         -2.2255759986        0.1604710021       -0.3654341229
 C         -3.2709299923        0.7042219293        0.4175987695
 C         -4.4528826422       -0.1543287268        0.6298504966
 C         -4.4886601812       -1.3876437985        0.0941595360
 C         -5.5300028121       -2.4841207381        0.1789877232
 C         -6.9472135754       -2.1824008006        0.6602319690
 C         -7.7604567689       -1.2787513265       -0.2656634336
 H         -7.9751868966       -1.8269191507       -1.1864999649
 H         -8.7134159595       -1.0614065297        0.2217665097
 C         -7.0922596262        0.0366965969       -0.6580696862
 H         -6.1946598181       -0.1682015011       -1.2453102078
 H         -7.7830220355        0.5812028515       -1.3076869792
 C         -6.7250779056        0.9567696090        0.5046346212
 H         -7.6057345021        1.1352883465        1.1245553421
 H         -6.4151160671        1.9149074019        0.0791275831
 C         -5.5812805332        0.4611186019        1.4067943228
 H         -5.9438437633       -0.2285707969        2.1649871218
 H         -5.1608487989        1.3276285412        1.9248674476
 H         -6.9251824925       -1.7740202829        1.6662063735
 H         -7.4647714980       -3.1437519011        0.7202085998
 H         -5.5783997777       -2.9226590375       -0.8228201393
 H         -5.0997150838       -3.2529087517        0.8303999025
 O         -3.4468899923       -1.8782986040       -0.6404547980
 C         -2.3150273839       -1.1294942010       -0.8947858445
 O         -1.4696448992       -1.7136122803       -1.6039139402
 O         -3.2467882162        1.8522849964        0.9348061899
 C         -0.9488959347        0.9131442371       -0.7029846822
 C          0.0472869508        0.8825639689        0.4319329007
 C         -0.2193343187        1.4881287199        1.6557427797
 C          0.7292653368        1.4771153374        2.6615765467
 C          1.9640768115        0.8852433705        2.4624737267
 C          2.2363243125        0.2698049233        1.2464441223
 C          1.2749747029        0.2642934469        0.2455147799
 H          1.4970992143       -0.2277710653       -0.6907554662
 N          3.4712834222       -0.3582383933        1.0190660246
 S          4.1298116711       -0.2808986205       -0.5339758724
 O          3.9325953264        1.0389850313       -1.0894236439
 O          3.6220412993       -1.3835114635       -1.3115602171
 C          5.8556539607       -0.5448636822       -0.1702840553
 C          6.3130011659       -1.8392916425       -0.0101366206
 C          7.6474532423       -2.0439608002        0.3028517651
 C          8.4972642042       -0.9576271442        0.4503489562
 C          8.0242604249        0.3354295329        0.2845706124
 C          6.6904710086        0.5474590682       -0.0272000667
 H          6.2802581144        1.5336280264       -0.1743506039
 H          8.6880337807        1.1775524376        0.3961999361
 H          9.5354735332       -1.1201834682        0.6930638294
 H          8.0192844943       -3.0479564176        0.4291180429
 H          5.6177525217       -2.6516171225       -0.1447015448
 H          4.1569761894       -0.1503566010        1.7321545773
 H          2.7092104139        0.8920083399        3.2435936977
 H          0.5100263846        1.9485577253        3.6077651900
 H         -1.1777900137        1.9590586541        1.8093541407
 H         -0.4995491113        0.3665412559       -1.5442159560
 C         -1.1921971243        2.3450874539       -1.1432117774
 C         -0.1021784099        3.0624251998       -1.8790228243
 C         -1.3494253677        2.6493578283       -2.6006631928
 H         -2.0525047290        3.4142961203       -2.8945126493
 H         -1.2874413129        1.8226991360       -3.2941438618
 H          0.0506800292        4.1116586625       -1.6776644473
 H          0.8100859938        2.5177044456       -2.0775448433
 H         -1.7911671171        2.9144213097       -0.4450884920
