  62
        -98.93902192
 C          0.6604320757        1.6901286230       -1.0306588681
 C          1.9228308681        1.9643335440       -0.4517454557
 C          2.9764190821        0.9494119905       -0.6209517960
 C          2.6813793328       -0.1837708149       -1.2805121682
 C          3.5504392018       -1.3972853070       -1.4665061039
 C          3.3159456050       -2.4009662176       -0.3228426660
 C          4.2299767732       -2.2161071798        0.8860993997
 H          3.9091349761       -2.9330380065        1.6456368098
 H          5.2574411126       -2.4628119591        0.6084459192
 C          4.1992100968       -0.8128805457        1.4961102590
 H          3.1648387925       -0.4627188851        1.5335323458
 H          4.5511805510       -0.8857020812        2.5273656818
 C          5.0765074835        0.1953373820        0.7393593945
 H          5.7339764497        0.7045177291        1.4474837710
 H          5.7247090211       -0.3434275430        0.0482589152
 C          4.3111723179        1.2901309973       -0.0153621508
 H          4.0993020074        2.1189754701        0.6677102052
 H          4.9556495115        1.6931600174       -0.8046307276
 H          2.2770293316       -2.3093725809        0.0078391119
 H          3.4559163994       -3.4145810792       -0.7053559236
 H          3.2454660327       -1.8586227995       -2.4081884253
 H          4.5981556511       -1.1197446872       -1.5364531773
 O          1.4641304590       -0.4016735773       -1.8434319358
 C          0.4194426244        0.5041051056       -1.7251090862
 O         -0.6262971507        0.1320815387       -2.2865942143
 O          2.1586443075        3.0238814962        0.1933442252
 C         -0.4488119675        2.6880855578       -0.7419701139
 C         -1.0743785821        2.3266585791        0.5826317836
 C         -1.2899315102        3.2707134777        1.5787392902
 C         -1.7955405620        2.8866907473        2.8092821715
 C         -2.0639724217        1.5566458788        3.0800204802
 C         -1.8526469893        0.6059000290        2.0875137137
 C         -1.3962094768        1.0020618974        0.8413197040
 H         -1.2479519308        0.2593783990        0.0745132010
 N         -2.0917314330       -0.7577459483        2.3069761742
 S         -1.1187394438       -1.8900610828        1.5415734126
 O         -1.2608066530       -3.0834196322        2.3532911106
 O          0.2347930311       -1.4130291007        1.3744693998
 C         -1.8991756469       -2.1863277998       -0.0289810917
 C         -1.1252200217       -2.6537020949       -1.0707759534
 C         -1.7314497457       -2.9351389931       -2.2838925836
 C         -3.0952708256       -2.7452735863       -2.4327417186
 C         -3.8600531681       -2.2779854221       -1.3752716223
 C         -3.2605772619       -1.9984457842       -0.1584307184
 H         -3.8242082922       -1.6263932188        0.6812349463
 H         -4.9205103871       -2.1250491780       -1.4967039306
 H         -3.5629627221       -2.9568176077       -3.3814850077
 H         -1.1328208886       -3.2873990337       -3.1084230155
 H         -0.0624032964       -2.7683217480       -0.9247633407
 H         -2.3046141172       -1.0176405280        3.2587963867
 H         -2.4232607090        1.2534781201        4.0515109293
 H         -1.9583661397        3.6282564164        3.5765997538
 H         -1.0353826387        4.3040347955        1.3945125538
 H          0.0571965196        3.6585104696       -0.6150654833
 C         -1.4621117807        2.8405570931       -1.8645827299
 C         -2.8460643115        2.2748249858       -1.8029560391
 C         -2.6397166379        3.7537429098       -1.6891735618
 H         -2.9318802301        4.3841339191       -2.5151554796
 H         -2.7789059894        4.2032736021       -0.7175842721
 H         -3.2595267522        1.8714534633       -2.7140713455
 H         -3.1324134439        1.7272190038       -0.9188593183
 H         -0.9862144416        2.8381090079       -2.8395301980
