  62
        -98.94049151
 C          2.4722486718        0.4451943988        0.0304157118
 C          3.6397865641        0.6952736825        0.7902509780
 C          4.6514430157       -0.3668628423        0.7745176355
 C          4.4173229544       -1.5008609872        0.0888871011
 C          5.3389326613       -2.6871224428        0.0010806473
 C          6.4284982536       -2.5536547246       -1.0716886048
 C          7.5495199191       -1.5674022796       -0.7414189109
 H          7.9547590876       -1.7965111800        0.2446631958
 H          8.3471745045       -1.7342488078       -1.4680597769
 C          7.1315690974       -0.0913844725       -0.7983221059
 H          6.1948761319        0.0011957052       -1.3528267562
 H          7.8848648685        0.4797107158       -1.3457005721
 C          6.9643906663        0.5735348695        0.5680185103
 H          7.9284540382        0.6063820446        1.0804490592
 H          6.6321598542        1.6027589132        0.4097558779
 C          5.9469450632       -0.1167233278        1.4858995127
 H          6.3582977281       -1.0504705726        1.8687525949
 H          5.7400786562        0.5470002799        2.3291279253
 H          5.9569450631       -2.2670874508       -2.0144916220
 H          6.8725463309       -3.5422336231       -1.2093108106
 H          5.8025219757       -2.8639334956        0.9720187323
 H          4.7140012054       -3.5473911474       -0.2480206149
 O          3.2699175796       -1.7126184065       -0.6090632279
 C          2.2784167465       -0.7439722388       -0.6722207982
 O          1.2964627149       -1.0601722625       -1.3699304036
 H         -1.1331535999        1.4326627342       -1.1494430680
 C         -1.0994746239        0.9856832365       -0.1679986934
 C          0.0959074806        0.9401607612        0.5288931141
 C          0.1032347790        0.3619855403        1.7962817635
 C         -1.0519099333       -0.1659890446        2.3366392591
 C         -2.2407770631       -0.1368596298        1.6270724254
 C         -2.2651356467        0.4460857863        0.3689098463
 N         -3.4468922675        0.4701353945       -0.3877450266
 S         -4.9546966910        0.8873860683        0.2181768535
 O         -5.4457884569        1.9851405100       -0.5870066804
 O         -4.8890461789        1.1092478716        1.6408868178
 C         -5.9322309398       -0.5631757093       -0.1296117171
 C         -5.6469551688       -1.7388804650        0.5362572022
 C         -6.4030467894       -2.8671282442        0.2625002144
 C         -7.4285907259       -2.8030880613       -0.6689505353
 C         -7.7025868752       -1.6167975220       -1.3314327235
 C         -6.9480740854       -0.4856754557       -1.0618173959
 H         -7.1277830828        0.4573157842       -1.5519162635
 H         -8.4998579312       -1.5684808536       -2.0556414019
 H         -8.0161316098       -3.6829525588       -0.8787947177
 H         -6.1894500185       -3.7912129767        0.7754615438
 H         -4.8434081479       -1.7569464985        1.2538619160
 H         -3.3244627610        0.8741312407       -1.3044789577
 H         -3.1450430319       -0.5318673101        2.0580852022
 H         -1.0298436113       -0.6108524100        3.3203315003
 H          1.0315637224        0.3326963945        2.3507451951
 C          1.3856061038        1.5039423205       -0.0145165879
 H          1.7231688568        2.2969514230        0.6694897342
 C          1.2693231216        2.0831393661       -1.4084410371
 C          0.7432405730        3.4727199569       -1.6059868621
 C          2.1992108295        3.1855500873       -1.8140359993
 H          2.5878453083        3.1883485216       -2.8213773362
 H          2.9024705824        3.5387312260       -1.0740818027
 H          0.1328495439        3.6769284474       -2.4730213264
 H          0.4562345106        4.0279973945       -0.7256551792
 H          1.0311453249        1.3324929673       -2.1540139345
 O          3.8231844734        1.7506501959        1.4548014150
