  62
        -98.93801996
 C         -1.7507143691       -1.3726849206        0.1389321497
 C         -1.9249722292       -0.3868244502       -0.8600962299
 C         -3.2729981393        0.2040297197       -0.9722005197
 C         -4.2424746893       -0.1960761908       -0.1326389499
 C         -5.6485381293        0.3276963890       -0.0393568797
 C         -5.7430763395        1.4403973285        1.0184890208
 C         -5.4254078097        2.8452099788        0.5071487614
 H         -6.2395146897        3.1854711890       -0.1363362484
 H         -5.3958107198        3.5079440784        1.3751738517
 C         -4.1074140296        2.9815707893       -0.2598751885
 H         -3.8174079998        4.0341485593       -0.2413417880
 H         -3.3230095496        2.4226999791        0.2543511713
 C         -4.2097768196        2.5203662999       -1.7214792187
 H         -3.8127658896        3.3008540802       -2.3740630183
 H         -5.2613432095        2.4050574499       -1.9837967388
 C         -3.4484396494        1.2292452601       -2.0596758792
 H         -3.9275946793        0.7479274105       -2.9185727995
 H         -2.4297671594        1.4808045104       -2.3707655091
 H         -5.0642087995        1.1839538782        1.8360932807
 H         -6.7556197895        1.4510297882        1.4269181308
 H         -6.2726180092       -0.5093618812        0.2805615499
 H         -5.9967377193        0.6747191194       -1.0076525695
 O         -4.0332019192       -1.1407741212        0.8237797297
 C         -2.8043354691       -1.7496407411        0.9790208295
 O         -2.7696142890       -2.6061182215        1.8849755591
 O         -1.0107714892        0.0138568603       -1.6313565997
 C         -0.4421165390       -2.1098539806        0.3795109994
 C          0.5345131208       -1.2968582508        1.1943338498
 C          1.1280517509       -1.8200711112        2.3368849896
 C          2.0583897908       -1.0840672314        3.0509964799
 C          2.4124669606        0.1904838388        2.6443353405
 C          1.8166095206        0.7235743492        1.5100168707
 C          0.8944780507       -0.0197018006        0.7895077803
 H          0.4521586207        0.3970666698       -0.1030807095
 N          2.1855807104        2.0187654195        1.0714287913
 S          3.7256909804        2.0864302600        0.4091138013
 O          4.6892484304        1.8782287996        1.4597903513
 O          3.8038896303        3.3481755403       -0.2913768581
 C          3.7652338306        0.7248262505       -0.7413082393
 C          3.2551979207        0.9172659210       -2.0093877692
 C          3.1958335708       -0.1598437987       -2.8781947197
 C          3.6353791710       -1.4063468588       -2.4602804002
 C          4.1402691009       -1.5843020693       -1.1815527703
 C          4.2043659408       -0.5102158697       -0.3091694598
 H          4.5886892608       -0.6059645801        0.6930476602
 H          4.4775268911       -2.5557975394       -0.8580221307
 H          3.5828460811       -2.2437660185       -3.1385625106
 H          2.7979651208       -0.0259348083       -3.8713868796
 H          2.9232534405        1.9024289810       -2.2964858288
 H          1.5320583504        2.3909384397        0.3950480514
 H          3.1463857405        0.7735203087        3.1767296608
 H          2.5119031808       -1.5063366417        3.9347283397
 H          0.8504560310       -2.8093716214        2.6697950191
 H         -0.7120861389       -2.9976257908        0.9666915290
 C          0.2258674211       -2.5698114199       -0.9037837208
 C          1.0931350812       -3.7900754798       -0.8752020413
 C         -0.2407522388       -3.8340464497       -1.5571000214
 H         -0.2726231487       -3.8741297992       -2.6353376214
 H         -1.0432209787       -4.3764076200       -1.0777558416
 H          1.9815996612       -3.8020693994       -1.4860044413
 H          1.1963540013       -4.3100561402        0.0649628885
 H          0.5220366110       -1.7533054096       -1.5492245704
