  62
        -98.94331976
 C         -2.6000040929       -0.0759686604       -0.1120775800
 C         -2.3724379991       -1.1399663958       -1.0158892828
 C         -1.9715514573       -2.4198187402       -0.4199130776
 C         -1.8232845532       -2.5050200695        0.9146600569
 C         -1.4197557232       -3.7474874249        1.6544679515
 C          0.0979323476       -3.8238733495        1.8634376085
 C          0.9160898196       -3.5886756918        0.5936882782
 H          0.8113240979       -2.5426384973        0.2959727345
 H          1.9658204746       -3.7361998348        0.8596118527
 C          0.5543119522       -4.5062692235       -0.5824805260
 H          0.0245479839       -5.3865797438       -0.2161904659
 H          1.4791316816       -4.8546327293       -1.0473124290
 C         -0.2714458976       -3.8381756532       -1.6837355549
 H          0.1907258183       -2.8857241360       -1.9564769694
 H         -0.2458426549       -4.4823408062       -2.5669095524
 C         -1.7461340915       -3.5778237627       -1.3510736601
 H         -2.2578391997       -3.3163927517       -2.2820980117
 H         -2.2006255528       -4.4875792856       -0.9533470463
 H          0.3366187700       -4.8055635530        2.2785281604
 H          0.3866980214       -3.0636495385        2.5934537892
 H         -1.9090562677       -3.7347660997        2.6303024989
 H         -1.7635630454       -4.6181607394        1.0985931670
 O         -2.0180124533       -1.4528040886        1.7497348889
 C         -2.3757053702       -0.2072589914        1.2587515301
 O         -2.4805401050        0.6771678392        2.1306717490
 H         -0.4687899198        0.8842697501       -1.3474423357
 C         -0.5688126613        1.8179566820       -0.8069556005
 C         -1.8302988673        2.2283917873       -0.3934481325
 C         -1.9376119502        3.4284465171        0.2955682047
 C         -0.8056598243        4.1675064535        0.5993400448
 C          0.4528204570        3.7244892273        0.2335434843
 C          0.5630077512        2.5435750575       -0.4847947881
 N          1.8586532121        2.0312844982       -0.8021479496
 S          2.2964468352        0.9340891201        0.4198152122
 O          1.4800943565       -0.2578995257        0.3336107184
 O          2.2777986771        1.6439274478        1.6733248665
 C          3.9782116950        0.5530425975       -0.0356162410
 C          4.9458735203        1.5172630877        0.1715431325
 C          6.2505932872        1.2484757820       -0.2091058175
 C          6.5636076398        0.0276798380       -0.7889298935
 C          5.5815437393       -0.9301157859       -0.9895356156
 C          4.2737261877       -0.6666722281       -0.6121176700
 H          3.4781635241       -1.3830930389       -0.7431440101
 H          5.8269773248       -1.8793034655       -1.4379978644
 H          7.5799553990       -0.1795287322       -1.0844684594
 H          7.0175674161        1.9897071607       -0.0534206543
 H          4.6550205524        2.4466522163        0.6319002720
 H          1.8258730402        1.4981314816       -1.6639324814
 H          1.3441750932        4.2646751777        0.5066699131
 H         -0.9056149320        5.0901391183        1.1506693974
 H         -2.9059515528        3.7733561377        0.6197961164
 C         -2.9792526454        1.2893532711       -0.6646011334
 H         -3.0672362534        1.1512548192       -1.7524187999
 C         -4.3077106444        1.7623715483       -0.1188797109
 C         -5.1207308809        2.7574946106       -0.8905139638
 C         -5.5690857273        1.3305814008       -0.8027719536
 H         -6.4288606083        1.0943141460       -0.1942629174
 H         -5.4699738132        0.7066036743       -1.6789686028
 H         -5.6770778938        3.5031423431       -0.3433270198
 H         -4.7207937549        3.1060292700       -1.8305611803
 H         -4.3183955140        1.8172353769        0.9635817661
 O         -2.5030846142       -1.0238254605       -2.2661918575
