  62
        -98.93755041
 C         -1.7174437757       -1.5737409060        0.2028329367
 C         -1.9526986986       -0.5032829300        1.1007331752
 C         -3.0316978060        0.4406559638        0.7591428915
 C         -3.7101149671        0.2680241466       -0.3907750958
 C         -4.8891706349        1.0096843260       -0.9864665847
 C         -5.4391484787        2.2609616694       -0.3092482164
 C         -4.5499092145        3.4975829475       -0.4515014419
 H         -4.6354853819        3.8624402862       -1.4781961426
 H         -4.9316261306        4.2778046012        0.2101290132
 C         -3.0653197980        3.2818777077       -0.1677737631
 H         -2.5484038513        4.2172987506       -0.3981999476
 H         -2.6709423876        2.5153725399       -0.8373155743
 C         -2.7203848081        2.9062378728        1.2706102493
 H         -3.0851342288        3.6792685594        1.9502497263
 H         -1.6309130512        2.8698792138        1.3533500871
 C         -3.2647258215        1.5512373799        1.7443894665
 H         -2.7213956415        1.2694411423        2.6513519653
 H         -4.3176256638        1.6229393880        2.0063169366
 H         -6.3949986585        2.4855720467       -0.7900508926
 H         -5.6564716603        2.0527878725        0.7344711769
 H         -4.6134079381        1.2484810844       -2.0186981037
 H         -5.6920623587        0.2671494953       -1.0504100990
 O         -3.4066023102       -0.7442455986       -1.2540948448
 C         -2.4168638993       -1.6789470361       -0.9982793120
 O         -2.2811654648       -2.5201778521       -1.9065957366
 O         -1.2971247667       -0.3541279379        2.1674918423
 C         -0.6452549027       -2.5774700833        0.5940279830
 C          0.6568416911       -2.2237760239       -0.0824105565
 C          0.8893571951       -2.4971628847       -1.4258019627
 C          2.0884696691       -2.1363169657       -2.0139009396
 C          3.0755842675       -1.4987013997       -1.2821625357
 C          2.8448972289       -1.2045249277        0.0551781500
 C          1.6419117073       -1.5695898812        0.6445625588
 H          1.4585219362       -1.3294139334        1.6832854919
 N          3.8382317994       -0.5538616709        0.8132992888
 S          4.4528429653        0.8967908457        0.2495763178
 O          5.2151975699        0.6564272693       -0.9488149175
 O          5.1753713024        1.4610695405        1.3659123862
 C          3.0203693330        1.8902439510       -0.1221362237
 C          2.4706265908        2.6571534078        0.8858015895
 C          1.3265919405        3.3917976931        0.6215480423
 C          0.7472461312        3.3351453130       -0.6366895763
 C          1.3070227657        2.5544286332       -1.6357645252
 C          2.4565000785        1.8241511441       -1.3803167283
 H          2.9255263412        1.2152795922       -2.1353865792
 H          0.8515347644        2.5112710344       -2.6121769949
 H         -0.1462380091        3.9034340919       -0.8409201306
 H          0.8895308887        4.0023107421        1.3957195427
 H          2.9551118602        2.6777826233        1.8488799324
 H          3.5948247236       -0.4607107043        1.7893706847
 H          4.0152802173       -1.2162067818       -1.7288073121
 H          2.2594134743       -2.3577307126       -3.0566908330
 H          0.1155818386       -2.9721049932       -2.0082530680
 H         -0.5043039382       -2.4356655012        1.6741666243
 C         -1.0446013259       -4.0184466265        0.3519945805
 C         -0.2832619021       -5.1039174442        1.0501576837
 C         -1.6911822209       -4.7935060646        1.4589726379
 H         -2.4702331262       -5.4973746619        1.2074178025
 H         -1.8492854512       -4.2873665997        2.4003075121
 H         -0.0921601502       -6.0231191680        0.5182635153
 H          0.5149641692       -4.8067737300        1.7137363445
 H         -1.3917117973       -4.2131130412       -0.6536826735
