  62
        -98.93599821
 C         -0.8398990015       -1.7328450337        0.3623116693
 C         -1.5611674384       -0.7646509372        1.1021113064
 C         -2.7622493745       -0.1835037919        0.4702053634
 C         -3.0859899474       -0.5714929096       -0.7769813188
 C         -4.2478221161       -0.1320303749       -1.6295313263
 C         -4.0533730352        1.2671762642       -2.2301887100
 C         -3.5675674828        2.3188806206       -1.2377838306
 H         -3.4029761272        3.2457045601       -1.7928939270
 H         -2.6050935574        2.0054876499       -0.8307646503
 C         -4.5330646393        2.6231655654       -0.0944654669
 H         -5.5011762885        2.9117454907       -0.5093868993
 H         -4.1371375582        3.4866229688        0.4454115733
 C         -4.7520456144        1.4960871245        0.9191777540
 H         -5.4683810716        0.7653463157        0.5523604892
 H         -5.1991950410        1.9436292470        1.8114990445
 C         -3.4784575414        0.7905250658        1.3742088113
 H         -3.6988975147        0.2289980218        2.2899634704
 H         -2.7330860277        1.5374129875        1.6682399110
 H         -4.9994676520        1.5849708238       -2.6722151797
 H         -3.3139530501        1.1930608154       -3.0313128900
 H         -5.1705543312       -0.1798542186       -1.0589274316
 H         -4.3239794081       -0.8538603773       -2.4459411021
 O         -2.3209302281       -1.4549223204       -1.4790067989
 C         -1.1819204701       -2.0416793615       -0.9548979114
 O         -0.5932837587       -2.7954043026       -1.7513197572
 O         -1.2205864110       -0.3920430083        2.2572140633
 C          0.3985629541       -2.3319239833        1.0053351457
 C          1.5793972718       -2.1256007849        0.0923989506
 C          2.2607858961       -3.1542928880       -0.5430547623
 C          3.3120715255       -2.8681952391       -1.3965207189
 C          3.7153952392       -1.5636479511       -1.6159931329
 C          3.0417340376       -0.5266570900       -0.9804756123
 C          1.9799459519       -0.8158310453       -0.1407276823
 H          1.4479108847       -0.0099732286        0.3442191774
 N          3.4074443615        0.8147507382       -1.1799780470
 S          3.4728927274        1.8344822592        0.1476434413
 O          4.3410080433        2.9154931565       -0.2698149276
 O          3.8769817699        1.1228672747        1.3380368171
 C          1.8221224517        2.4722074038        0.3341733803
 C          1.2008356352        2.4016703655        1.5648990002
 C         -0.0651653256        2.9455593880        1.7105077855
 C         -0.6822034654        3.5504970647        0.6270751869
 C         -0.0467638484        3.6097837858       -0.6044563437
 C          1.2190905192        3.0682576340       -0.7557995831
 H          1.7471083284        3.0998364533       -1.6943645620
 H         -0.5356166984        4.0765890331       -1.4444207852
 H         -1.6653326175        3.9791217729        0.7424266831
 H         -0.5619592006        2.8850209366        2.6657878218
 H          1.7109051445        1.9142805966        2.3808363376
 H          4.2003538479        0.9503888846       -1.7905005167
 H          4.5394529475       -1.3455171195       -2.2786320862
 H          3.8284658432       -3.6742222962       -1.8957684527
 H          1.9514940597       -4.1752003591       -0.3904273235
 H          0.5616904483       -1.7116874622        1.9030623017
 C          0.2469715430       -3.7619670655        1.4976001882
 C         -1.0761623744       -4.2641387712        1.9918471474
 C         -0.4844449809       -4.8237134781        0.7347094516
 H         -0.0904500234       -5.8294539461        0.7610593652
 H         -0.9242272173       -4.5528850417       -0.2114006789
 H         -1.0958038969       -4.8840222503        2.8756135863
 H         -1.9233417617       -3.5992479364        1.9036034881
 H          1.1216424945       -4.0845222589        2.0552465554
