  62
        -98.93896110
 C         -1.8273364279       -0.8739395307        0.4281702109
 C         -2.4609107047       -0.2746874934       -0.6847516613
 C         -3.5528741538        0.6716842632       -0.3872769052
 C         -3.8733558544        0.9337040310        0.8935043878
 C         -4.9009237162        1.8713355041        1.4928781879
 C         -6.0133322832        2.4652768106        0.6326986348
 C         -7.0362824845        1.4524172662        0.1196883268
 H         -7.6190597100        1.0864620276        0.9688139156
 H         -7.7212178754        1.9716612099       -0.5542376332
 C         -6.4572658976        0.2369267834       -0.6000708616
 H         -5.8531776620       -0.3486276106        0.0959860896
 H         -7.2928540589       -0.3957805329       -0.9113408960
 C         -5.6229460238        0.5477893045       -1.8413158343
 H         -5.4135315644       -0.4008200677       -2.3428082836
 H         -6.2021777051        1.1678311404       -2.5282350789
 C         -4.2731126758        1.2376730975       -1.5768575992
 H         -4.3905391705        2.3144156289       -1.4789355157
 H         -3.6255011957        1.0567893246       -2.4399378143
 H         -6.5464022361        3.1802174868        1.2655010490
 H         -5.5905610220        3.0310194178       -0.1923733671
 H         -5.3490685506        1.3246813859        2.3287716394
 H         -4.3297236451        2.6951500647        1.9356115165
 O         -3.2010660966        0.3601812350        1.9356746443
 C         -2.1771460336       -0.5486742702        1.7362188502
 O         -1.6598896387       -0.9809973462        2.7870424736
 O         -2.1314220784       -0.5100882685       -1.8757963607
 C         -0.7068904440       -1.8762452140        0.2186473179
 C          0.4385233095       -1.2246865318       -0.5185083822
 C          1.0839923004       -1.8057343192       -1.6015415606
 C          2.1278783208       -1.1484774137       -2.2310658772
 C          2.5574207169        0.0892329234       -1.7907736093
 C          1.9328160609        0.6690192114       -0.6929595626
 C          0.8889611784        0.0091080315       -0.0638690156
 H          0.4014616990        0.4647300301        0.7898220686
 N          2.3752963565        1.9160001153       -0.2212037245
 S          4.0243852431        2.1706776131       -0.1004383602
 O          4.1808276520        3.1381456612        0.9632843143
 O          4.5506182008        2.5609445291       -1.3848162690
 C          4.7138537137        0.5951981067        0.3765626395
 C          4.2558562482        0.0067177381        1.5388004888
 C          4.7600087413       -1.2297621553        1.9074676810
 C          5.7100240908       -1.8530615013        1.1126423644
 C          6.1644227113       -1.2463249583       -0.0476890369
 C          5.6612972177       -0.0108759156       -0.4229728401
 H          5.9823157090        0.4946615384       -1.3190800410
 H          6.9043777183       -1.7324391431       -0.6626465218
 H          6.0969592902       -2.8174708368        1.4013302340
 H          4.4059448466       -1.7025405432        2.8095941584
 H          3.5186783972        0.5165093470        2.1387981737
 H          1.8899777901        2.2416695340        0.6011736688
 H          3.3556778868        0.6212491268       -2.2823785915
 H          2.6116914923       -1.6058687436       -3.0803220539
 H          0.7633119718       -2.7690829570       -1.9615742896
 H         -0.3515872962       -2.1455868561        1.2242349820
 C         -1.2373759215       -3.1216902272       -0.4599878184
 C         -0.5931692439       -4.4508918480       -0.2087359272
 C         -1.9421398866       -4.1505577265        0.3703671912
 H         -2.8070558289       -4.6452298903       -0.0455609030
 H         -2.0160540025       -3.9646995892        1.4323594981
 H         -0.5334067386       -5.1575669375       -1.0225790290
 H          0.2505310036       -4.4786236580        0.4639156473
 H         -1.6339929493       -2.9200210990       -1.4481768710
