  62
        -98.93905526
 C          2.2323566504        0.1230538202        0.3134329805
 C          3.2675338404        0.7343153806       -0.4361333193
 C          4.3951279506       -0.1365343192       -0.8046740793
 C          4.3789807208       -1.4331602593       -0.4494940496
 C          5.4839470609       -2.4128793691       -0.7161023496
 C          6.4840693308       -2.4509531491        0.4480069805
 C          6.9629534705       -1.0701794592        0.8965314909
 H          6.1198809304       -0.5222735894        1.3237017209
 H          7.6867716504       -1.2225395292        1.7001148009
 C          7.6029152305       -0.2279059088       -0.2158134289
 H          7.8915826808       -0.8711693986       -1.0477670890
 H          8.5154736304        0.2290990912        0.1726581313
 C          6.7222000704        0.9094296711       -0.7363498288
 H          6.3561118802        1.5032936409        0.1048489113
 H          7.3428001604        1.5641550614       -1.3538997385
 C          5.5181493106        0.4856427211       -1.5868030190
 H          5.1007384005        1.3874682912       -2.0436749589
 H          5.8475632308       -0.1828790887       -2.3845454991
 H          7.3413942909       -3.0556235489        0.1467395205
 H          6.0051125307       -2.9402047594        1.2993811704
 H          5.0426208811       -3.4035434791       -0.8371787799
 H          5.9929399610       -2.1369712988       -1.6375008095
 O          3.3575267807       -1.9928517396        0.2483372502
 C          2.2750923506       -1.2330581198        0.6534261302
 O          1.4248923806       -1.8708043301        1.3084699999
 H         -1.4400163596       -0.2717017904        0.6438897599
 C         -1.2397336896        0.3694620998       -0.2027887100
 C         -0.0217182996        1.0255990900       -0.3048337997
 C          0.2174271104        1.8257511703       -1.4176105295
 C         -0.7485089295        1.9669887903       -2.3966680896
 C         -1.9729367394        1.3333651101       -2.2786741299
 C         -2.2171539494        0.5233282099       -1.1760112101
 N         -3.4396938094       -0.1535210103       -1.0389388604
 S         -4.0785093995       -0.3412350808        0.5124521495
 O         -3.9006504898        0.8766751291        1.2707532498
 O         -3.5394970994       -1.5430224208        1.0982107093
 C         -5.8025889795       -0.5810628109        0.1252563192
 C         -6.6603039396        0.5022835389        0.1582880393
 C         -7.9923091095        0.3127969188       -0.1749171809
 C         -8.4407302093       -0.9487812312       -0.5361625312
 C         -7.5679633191       -2.0265297811       -0.5642774013
 C         -6.2350956992       -1.8443766109       -0.2314410711
 H         -5.5215886991       -2.6520511908       -0.2295651212
 H         -7.9206618990       -3.0064549911       -0.8426825716
 H         -9.4777139193       -1.0939235813       -0.7946421614
 H         -8.6738422897        1.1477428287       -0.1509250208
 H         -6.2686916698        1.4622249989        0.4541949496
 H         -4.1383235493        0.1564841697       -1.7005601504
 H         -2.7309809293        1.4564670602       -3.0374141900
 H         -0.5506100895        2.5894602005       -3.2562646494
 H          1.1700886403        2.3233953005       -1.5104644292
 C          1.0000520302        0.8715591800        0.7969502604
 H          0.5505922602        0.2319058197        1.5696062402
 C          1.3184264499        2.2172956699        1.4210789408
 C          0.2809179397        2.8697057595        2.2825283007
 C          1.5258385497        2.3090348296        2.9010996408
 H          2.2700262496        2.9957411296        3.2758690710
 H          1.4434306798        1.3972904795        3.4755812206
 H         -0.6490356502        2.3398114294        2.4328375305
 H          0.1705481596        3.9421044495        2.2327606109
 H          1.9254926799        2.8534550101        0.7910835510
 O          3.2765650403        1.9427791706       -0.7901137090
