  62
        -98.94073881
 C          2.4184082825        1.0665080741       -0.1675815058
 C          3.7323724539        1.1680455559        0.3492737212
 C          4.7453056750        0.3255147405       -0.2992580330
 C          4.3799677604       -0.4753233052       -1.3172554901
 C          5.2961881792       -1.4289182391       -2.0269964636
 C          5.2772567795       -2.8145052586       -1.3662627177
 C          5.4642850255       -2.7790381940        0.1505893807
 H          4.6005901787       -2.2870358537        0.6042373550
 H          5.4642203868       -3.8130823770        0.5022988006
 C          6.7494147921       -2.0801339782        0.6159792788
 H          7.4543309400       -2.0108797692       -0.2132454416
 H          7.2187097712       -2.6902998578        1.3905369492
 C          6.5331452931       -0.6891233978        1.2145503945
 H          5.7588463823       -0.7381824574        1.9843854531
 H          7.4611224641       -0.3812316968        1.7036293703
 C          6.1536813216        0.4136652603        0.2182949199
 H          6.2199735362        1.3713298831        0.7428240989
 H          6.8673235610        0.4241486422       -0.6078952603
 H          6.0634947513       -3.4226113022       -1.8173466871
 H          4.3159528158       -3.2874048780       -1.5809361625
 H          4.9587313214       -1.5249930539       -3.0603062133
 H          6.3070887957       -1.0259156806       -2.0205957200
 O          3.1092193853       -0.5406822575       -1.7910847769
 C          2.0952485927        0.2209159364       -1.2284841228
 O          0.9791012266        0.0620811315       -1.7594512170
 H         -1.3719056259        1.7099073902       -0.1437388595
 C         -1.0591798776        1.0007410611        0.6065446702
 C          0.2603623248        0.9771947192        1.0250416803
 C          0.6356550905        0.0424234980        1.9872131727
 C         -0.2855439324       -0.8453155772        2.5067085095
 C         -1.6039067947       -0.8201922320        2.0840627042
 C         -1.9891291728        0.1062782661        1.1259743715
 N         -3.3325018908        0.1729817820        0.7050943369
 S         -4.1476090786       -1.2613450471        0.3444960508
 O         -4.4055812790       -1.9675246933        1.5742308900
 O         -3.4433041843       -2.0057298307       -0.6767003976
 C         -5.6716159939       -0.6018623926       -0.3021899748
 C         -6.6878061301       -0.2869727797        0.5796172789
 C         -7.8621192749        0.2551340160        0.0822039759
 C         -7.9993437406        0.4735674657       -1.2805239695
 C         -6.9710415161        0.1512709537       -2.1535258370
 C         -5.7936276856       -0.3908310113       -1.6624803700
 H         -4.9726244902       -0.6654054521       -2.3059696336
 H         -7.0814145958        0.3194263468       -3.2127948252
 H         -8.9141203611        0.8953466053       -1.6659669062
 H         -8.6648027387        0.5048806592        0.7570840181
 H         -6.5382382611       -0.4815348118        1.6286140134
 H         -3.4437644594        0.8215098133       -0.0637447305
 H         -2.3285709059       -1.5156558010        2.4742068099
 H          0.0217931982       -1.5675910621        3.2485253072
 H          1.6662549581        0.0175433500        2.3152422295
 C          1.3170644325        1.8978847684        0.4665897960
 H          1.7943040816        2.4201725581        1.3083998478
 C          0.7920001782        2.9279501075       -0.5101669822
 C          0.1118112693        4.1632826811       -0.0022560549
 C          1.4807676542        4.2551307146       -0.6044685901
 H          1.5885045018        4.7107941141       -1.5773413429
 H          2.3211537346        4.4257478126        0.0521979445
 H          0.0195386595        4.2763627037        1.0672052246
 H         -0.7207385702        4.5621708051       -0.5618256140
 H          0.4347323372        2.4859684084       -1.4336628493
 O          4.0417437344        1.9259081187        1.3075741605
