  62
        -98.93983827
 C         -1.8302099546       -1.0203743279        0.4641060782
 C         -2.3769954794        0.0826170656        1.1699173741
 C         -3.8312599561        0.2531269295        1.0892074416
 C         -4.5664131790       -0.6320489945        0.3926488466
 C         -6.0626388791       -0.6136344343        0.2348634602
 C         -6.5608126633        0.3110300379       -0.8841810921
 C         -6.4604912198        1.8073223060       -0.5849670097
 H         -7.0400924235        2.3267637079       -1.3506616809
 H         -6.9300555444        2.0171441982        0.3765923356
 C         -5.0283306752        2.3603037595       -0.5918737746
 H         -4.9998138183        3.2919826770       -1.1615031822
 H         -4.3664148621        1.6552252334       -1.1002202154
 C         -4.4572287505        2.6606522087        0.7941657224
 H         -5.0315109753        3.4637748548        1.2616388715
 H         -3.4281217792        3.0094494465        0.6728009641
 C         -4.4392787584        1.4561323264        1.7443093759
 H         -3.8219666020        1.7110712228        2.6094103796
 H         -5.4491717128        1.2330840674        2.0883943185
 H         -7.6106693931        0.0683335126       -1.0638371839
 H         -6.0059217640        0.0845421477       -1.7974508918
 H         -6.5268111472       -0.3271214407        1.1789865281
 H         -6.3624093169       -1.6361148878       -0.0045795171
 O         -4.0111011922       -1.6903104578       -0.2505560779
 C         -2.6357565664       -1.9020843207       -0.2586350597
 O         -2.2921725051       -2.8932869518       -0.9268890970
 O         -1.6783407673        0.8827567875        1.8493422697
 C         -0.3225752440       -1.1916840570        0.5346665229
 C          0.3451004262       -0.4896456986       -0.6200013787
 C         -0.0111955179       -0.7743477344       -1.9356673706
 C          0.6017360630       -0.1149595264       -2.9845876714
 C          1.5817274179        0.8326722724       -2.7454343870
 C          1.9373843352        1.1322161506       -1.4353855139
 C          1.3209942952        0.4675210151       -0.3822331925
 H          1.5831752827        0.7316376648        0.6312061363
 N          2.9098603875        2.1025111386       -1.1728620771
 S          3.8569733328        2.0658578589        0.1947006863
 O          3.1026268295        2.4822657340        1.3498651859
 O          4.9965986629        2.8911910314       -0.1447140817
 C          4.3863701676        0.3728240357        0.3911627086
 C          4.3413950468       -0.2015867197        1.6452281759
 C          4.7922442296       -1.5025981418        1.8059350655
 C          5.2730143448       -2.2060479479        0.7125161189
 C          5.3096829416       -1.6162157954       -0.5415950473
 C          4.8676656955       -0.3134635976       -0.7064208333
 H          4.8941078284        0.1706804764       -1.6687562787
 H          5.6804629764       -2.1671739810       -1.3906487241
 H          5.6166417342       -3.2202939416        0.8384656374
 H          4.7599828578       -1.9623037257        2.7806637760
 H          3.9473832219        0.3764943726        2.4661371929
 H          3.3895526701        2.4765858378       -1.9771193945
 H          2.0579321222        1.3487302407       -3.5649881340
 H          0.3164937229       -0.3435783824       -4.0003961926
 H         -0.7736409374       -1.5153587889       -2.1219850940
 H         -0.0267215815       -0.6603276527        1.4536053217
 C          0.1125796923       -2.6428370547        0.6883126033
 C          0.8975431068       -3.3917584806       -0.3429702974
 C          1.5588610734       -2.9602616481        0.9288074507
 H          1.8100110037       -3.7074330968        1.6658245723
 H          2.2579305322       -2.1389699226        0.8738602474
 H          0.6633432964       -4.4360040738       -0.4815206278
 H          1.1653440189       -2.8819153031       -1.2542921718
 H         -0.6127050079       -3.2230244585        1.2494668267
