  62
        -98.93515664
 C          2.2429570309       -0.5287240058       -0.1843807568
 C          3.5199627554       -0.9572848279       -0.6130730937
 C          4.6212263079        0.0123633525       -0.4818324465
 C          4.3677741817        1.2321642804        0.0284104007
 C          5.2710394088        2.4288920557        0.2441202337
 C          6.7893568147        2.2860896942        0.1745161333
 C          7.4061139141        1.4542525343        1.2985460508
 H          8.4720891281        1.3376315497        1.0914874673
 H          7.3076967578        2.0090180153        2.2350684281
 C          6.7879777027        0.0750749854        1.5139900398
 H          7.3167205213       -0.4022123539        2.3435361283
 H          5.7449781749        0.1837353829        1.8186789083
 C          6.8589220634       -0.8679035017        0.3146150013
 H          6.5317305531       -1.8547250086        0.6528023783
 H          7.8932393623       -0.9560943681       -0.0232082390
 C          5.9817794258       -0.4773622433       -0.8875266568
 H          5.8160423807       -1.3752680143       -1.4899099989
 H          6.4797917102        0.2531335888       -1.5203667943
 H          7.1993665288        3.2969152215        0.2498532714
 H          7.0870233470        1.8976882100       -0.7948842694
 H          4.9585988136        3.1725445778       -0.4974242154
 H          4.9940391752        2.8363840528        1.2216476892
 O          3.1115675664        1.6049536112        0.4169208874
 C          2.0266479407        0.7482693229        0.3282085968
 O          0.9528404289        1.2374576006        0.7299961797
 O          3.7324838467       -2.1008774569       -1.0985620410
 C          1.0714492157       -1.4883485753       -0.2835975367
 C         -0.0188194049       -0.8825732421       -1.1314983957
 C          0.3027896070       -0.4352863235       -2.4110565511
 C         -0.6566320554        0.1417751333       -3.2187734216
 C         -1.9555495601        0.2910848759       -2.7647306859
 C         -2.2908525463       -0.1623664697       -1.4951157720
 C         -1.3268297091       -0.7575180872       -0.6917981144
 H         -1.6101943754       -1.0946919096        0.2900160529
 N         -3.6201027696       -0.0639771408       -1.0370868093
 S         -3.9404327883        0.4891705034        0.5268530629
 O         -3.4824553689        1.8529498836        0.6825097980
 O         -3.4573465014       -0.4710742990        1.4846322142
 C         -5.7238697026        0.4469878100        0.4901846960
 C         -6.3505501223       -0.7821121618        0.5721136403
 C         -7.7342461980       -0.8333836690        0.5212995659
 C         -8.4648374938        0.3385456777        0.3903301445
 C         -7.8222930658        1.5646429261        0.3113926786
 C         -6.4379869979        1.6224644875        0.3597973755
 H         -5.8954160114        2.5528964360        0.3091941933
 H         -8.3925356842        2.4743021953        0.2127351666
 H         -9.5418697366        0.2959411489        0.3521799219
 H         -8.2376351239       -1.7846115740        0.5844192839
 H         -5.7421175229       -1.6644635940        0.6817036220
 H         -4.1967047772        0.4583581696       -1.6851769242
 H         -2.7037785711        0.7542076126       -3.3905791603
 H         -0.3913794361        0.4880588350       -4.2065502855
 H          1.3219276302       -0.5398545733       -2.7584986682
 H          1.4626495829       -2.3742806648       -0.8060688286
 C          0.6104944203       -1.9032550246        1.0972005601
 C         -0.0608266435       -3.2275101559        1.3000229388
 C          1.3328313065       -3.0085859147        1.8050792640
 H          1.4905817041       -2.9217389453        2.8696999837
 H          2.1487311542       -3.4822952692        1.2788586190
 H         -0.8663888249       -3.2880296845        2.0162637614
 H         -0.1922989288       -3.8567541489        0.4328101787
 H          0.2720416265       -1.0634014273        1.6955715920
