  62
        -98.93763457
 C          2.6293885803        1.1238417959        0.2094954964
 C          2.7239376481        0.2588513028       -0.9064155964
 C          3.5402402058       -0.9534418993       -0.7203919513
 C          4.1416157554       -1.1718667215        0.4615135195
 C          5.0422562894       -2.3160035474        0.8544071052
 C          4.6088345706       -3.7297098646        0.4392225507
 C          3.0908426388       -3.9540908721        0.3742299983
 H          2.5674670388       -3.1196925279        0.8449960442
 H          2.8414875392       -4.8537647401        0.9402036198
 C          2.5748313296       -4.1410957438       -1.0549259437
 H          1.6081757751       -4.6488902560       -1.0148570751
 H          3.2653618813       -4.7953646026       -1.5914821627
 C          2.3776974157       -2.8558821014       -1.8584762213
 H          1.5223260996       -2.2984015499       -1.4662676291
 H          2.1312656776       -3.1362964428       -2.8851908703
 C          3.5818373177       -1.9003932420       -1.8848238959
 H          3.4978788814       -1.2803762725       -2.7812887188
 H          4.5200536022       -2.4482031560       -1.9259771790
 H          5.0470785301       -4.4190403063        1.1628277565
 H          5.0433183804       -3.9739358449       -0.5291390013
 H          6.0405765904       -2.1160108005        0.4549515967
 H          5.1142466036       -2.2596375594        1.9432438844
 O          4.0217410041       -0.3088129919        1.5113880338
 C          3.2589505066        0.8432110451        1.4195131842
 O          3.2155303750        1.5183864132        2.4694438647
 H          0.3369037781        0.3821484217        1.1021501591
 C         -0.2362727171        0.9587806611        0.3848216435
 C          0.3647481900        2.0427397288       -0.2433577080
 C         -0.3899626620        2.7840315399       -1.1429831213
 C         -1.6998659974        2.4305892643       -1.4180671512
 C         -2.2847294413        1.3366135690       -0.8080179005
 C         -1.5441634799        0.5957155570        0.1039033467
 N         -2.1254513729       -0.5264651287        0.7223298479
 S         -3.6020104966       -0.3174855885        1.4966392650
 O         -3.7506594812        1.0305991245        1.9948593731
 O         -3.6649810837       -1.3763322536        2.4806479717
 C         -4.8048330941       -0.6350739290        0.2234071994
 C         -4.7307939732       -1.8336615981       -0.4588688897
 C         -5.6662367974       -2.0998177070       -1.4459225106
 C         -6.6560349435       -1.1703416990       -1.7294391834
 C         -6.7189247930        0.0265784868       -1.0325399313
 C         -5.7850825242        0.3000732160       -0.0451145467
 H         -5.7897060439        1.2196170558        0.5180198186
 H         -7.4893284093        0.7474619476       -1.2541907033
 H         -7.3825955225       -1.3804258795       -2.4983739074
 H         -5.6200443071       -3.0292047681       -1.9903836869
 H         -3.9480480153       -2.5294632094       -0.2063743080
 H         -1.4878374636       -1.0337942910        1.3188618835
 H         -3.3008844643        1.0526264213       -1.0276843228
 H         -2.2721341882        3.0132808000       -2.1235680381
 H          0.0490175155        3.6379133517       -1.6321865013
 C          1.7914510026        2.3847888107        0.1160872661
 H          1.7891258134        2.8250682027        1.1248763907
 C          2.4345443442        3.3666803420       -0.8419956815
 C          2.2907732918        4.8423643661       -0.6260335579
 C          3.6057159398        4.1718329816       -0.3681215324
 H          4.4212216774        4.3496736314       -1.0528429489
 H          3.9193304816        4.0319429278        0.6565887763
 H          1.7149461153        5.1702358375        0.2264235535
 H          2.2069724252        5.4845346284       -1.4898333421
 H          2.4609090798        2.9951300378       -1.8598076701
 O          2.1591704393        0.4857124623       -2.0067289418
