  62
        -98.93830714
 C          2.5314839599        0.1070270475       -0.0577871492
 C          2.4350640990       -0.9537331926        0.8680421305
 C          2.0153467184       -2.2668868523        0.3441960602
 C          1.7580135187       -2.3841962219       -0.9720200499
 C          1.2655911383       -3.5911478415       -1.7264533403
 C         -0.2328793019       -3.8427406206       -1.5075730508
 C         -0.6815191324       -3.8014176007       -0.0495898710
 H         -0.4941423219       -2.8023082608        0.3508310593
 H         -1.7658378124       -3.9440980701       -0.0352568213
 C         -0.0570398032       -4.8580212812        0.8597780690
 H         -0.5645461535       -4.7879925611        1.8253154489
 H         -0.2613047937       -5.8485617010        0.4473102188
 C          1.4486436168       -4.7327705621        1.1102092395
 H          2.0249919468       -5.1419052323        0.2845629396
 H          1.6839521161       -5.3440796524        1.9863058495
 C          1.9228237175       -3.3179598624        1.4242444099
 H          1.2869853275       -2.8902697922        2.2089315498
 H          2.9256373473       -3.3727737731        1.8652926602
 H         -0.7877475913       -3.0654593202       -2.0391773709
 H         -0.4877594923       -4.8101062304       -1.9450080111
 H          1.4314534987       -3.3845047614       -2.7862052702
 H          1.8474240177       -4.4690561518       -1.4621321603
 O          1.8913853596       -1.3368334618       -1.8354526397
 C          2.2370897002       -0.0700402621       -1.4089551894
 O          2.2658744310        0.7908312581       -2.3103219592
 H          0.2574481401        0.8497348387        0.5127383502
 C          0.3916758208        1.8969617787        0.2836521004
 C          1.6753721911        2.4214088779        0.2025717009
 C          1.8180074520        3.7769067979       -0.0652445788
 C          0.7012594025        4.5734968286       -0.2566789090
 C         -0.5725414678        4.0401805893       -0.2012094695
 C         -0.7258027087        2.6815044493        0.0595810402
 N         -2.0021570790        2.0956398401        0.0559104797
 S         -2.2331440301        0.4637767501        0.3627453294
 O         -1.8957660007        0.1337473297        1.7322861394
 O         -1.5748170002       -0.2991675300       -0.6664553806
 C         -4.0009730500        0.3871740512        0.1458035788
 C         -4.5051604096        0.3753980617       -1.1409562414
 C         -5.8787836596        0.3582966325       -1.3227906218
 C         -6.7213241599        0.3549482128       -0.2207193620
 C         -6.2011841903        0.3643788223        1.0645802281
 C         -4.8278264104        0.3819977114        1.2528140985
 H         -4.3769006507        0.3830257910        2.2321307287
 H         -6.8582255506        0.3591975925        1.9192607479
 H         -7.7900344599        0.3428499834       -0.3651393024
 H         -6.2863492593        0.3484234030       -2.3207772519
 H         -3.8098892794        0.3722390215       -1.9646051311
 H         -2.7434162688        2.6850427504        0.4035991696
 H         -1.4403878374        4.6591913798       -0.3657828796
 H          0.8269093031        5.6261727086       -0.4598966487
 H          2.8037063022        4.2089368274       -0.1248677184
 C          2.8486898605        1.5009918772        0.4460774411
 H          2.9772625101        1.3958509570        1.5351206411
 C          4.1428049210        2.0152576266       -0.1504109784
 C          5.0444139212        2.9106361159        0.6446213021
 C          5.4411414405        1.4899708058        0.3826729919
 H          6.2427662906        1.2940443054       -0.3132595079
 H          5.3888854099        0.7840363656        1.1989439818
 H          5.5793372819        3.6930033157        0.1276414024
 H          4.7356307411        3.1705688759        1.6460093020
 H          4.0686268614        2.1766072669       -1.2198680584
 O          2.6802256387       -0.8124223930        2.0998360606
