  62
        -98.94498418
 C          1.2934680103        1.3198236396       -0.1042553116
 C          1.4508113501       -0.0799766006       -0.2634829006
 C          2.6584363503       -0.6596028302        0.3431056795
 C          3.5232309505        0.1204085902        1.0136348387
 C          4.7831379206       -0.3337988194        1.6997045687
 C          5.9906409604       -0.4733043401        0.7621932985
 C          5.9450807800       -1.6697538908       -0.1894995907
 H          5.7434382001       -2.5775442304        0.3801032400
 H          6.9422292099       -1.7717128212       -0.6224230409
 C          4.9243405897       -1.5365303716       -1.3283227605
 H          5.3909687995       -1.8295558723       -2.2714338204
 H          4.6261592198       -0.4905469016       -1.4288290412
 C          3.6692083297       -2.3926761114       -1.1575664195
 H          3.9384349196       -3.4508279214       -1.1915211588
 H          2.9968260595       -2.1876559719       -1.9941547095
 C          2.9016454101       -2.1250937404        0.1431021305
 H          3.4434741303       -2.5395502398        0.9933448006
 H          1.9271319100       -2.6171578803        0.0830384911
 H          6.8792326305       -0.5704887498        1.3902815983
 H          6.0913383003        0.4482745094        0.1843366078
 H          4.6018237207       -1.2820068390        2.2072325194
 H          5.0167119409        0.4227512512        2.4520711281
 O          3.3309076506        1.4583500603        1.1602836378
 C          2.2274153905        2.0827487300        0.6033333476
 O          2.1904133907        3.3151007602        0.7994702267
 O          0.6464928299       -0.8306182509       -0.8738713499
 C          0.1136760202        2.1044432193       -0.6533529418
 C         -1.0644354596        2.0844432500        0.2915400485
 C         -1.7423103094        3.2566711403        0.6060703378
 C         -2.8527654892        3.2266319810        1.4302478681
 C         -3.3184811491        2.0280055214        1.9392643491
 C         -2.6436655293        0.8501594311        1.6349384298
 C         -1.5189488095        0.8866153504        0.8227696195
 H         -0.9940346396       -0.0302962597        0.6102937000
 N         -3.0932731792       -0.3756777885        2.1349380408
 S         -2.7172322795       -1.8236069590        1.3984186718
 O         -3.7658131995       -2.7190917986        1.8484260527
 O         -1.3769246695       -2.2253197989        1.7452514617
 C         -2.8744530200       -1.5697560803       -0.3609753684
 C         -1.9875664703       -2.2084014710       -1.2019783682
 C         -2.1101497506       -2.0251548520       -2.5700825683
 C         -3.1121946707       -1.2096341922       -3.0704992586
 C         -4.0030146104       -0.5834561516       -2.2122403388
 C         -3.8886898101       -0.7665155406       -0.8441352787
 H         -4.5689686199       -0.2884160700       -0.1584880689
 H         -4.7818102205        0.0510934982       -2.6035423890
 H         -3.1973910610       -1.0601251930       -4.1355424687
 H         -1.4118648108       -2.5089094825       -3.2340565181
 H         -1.2019555702       -2.8094846607       -0.7748976579
 H         -4.0034743691       -0.3746244781        2.5690196311
 H         -4.1904807090        2.0003520819        2.5743584994
 H         -3.3669605290        4.1440211312        1.6727262276
 H         -1.3846312994        4.1960358500        0.2117275271
 H          0.4587796802        3.1444598992       -0.7359407527
 C         -0.3485900302        1.6386549683       -2.0223225614
 C         -1.0823716504        2.5950878077       -2.9111194919
 C          0.3162367595        2.1770712574       -3.2513339919
 H          0.4718999392        1.5094769868       -4.0851158415
 H          1.1112230796        2.8962728774       -3.1149066727
 H         -1.8930801406        2.2144636673       -3.5124168014
 H         -1.2344844202        3.6011932480       -2.5512906126
 H         -0.6575202103        0.6017445483       -2.0352925005
