  62
        -98.93945905
 C         -0.6923145290       -1.3480310597        0.6532519805
 C         -1.3624266290       -1.1450091606       -0.5763671897
 C         -2.3616831593       -0.0674729909       -0.5896025304
 C         -2.5517770695        0.6786671498        0.5128731092
 C         -3.5046332197        1.8353346197        0.6559043684
 C         -5.0047703997        1.4928857493        0.5622571986
 C         -5.6054049897        1.6719580682       -0.8376650815
 H         -6.6018136798        2.1074808681       -0.7388890118
 H         -5.0017070098        2.3931147880       -1.3896066120
 C         -5.7581936694        0.3939430377       -1.6681074907
 H         -6.6356191992       -0.1556868123       -1.3193891604
 H         -5.9461594494        0.6882231570       -2.7029219809
 C         -4.5726079391       -0.5710840820       -1.6359182301
 H         -4.7251463790       -1.3235893325       -2.4122104196
 H         -4.5626033790       -1.1087727914       -0.6847442397
 C         -3.1944864293        0.0923495282       -1.8279692405
 H         -2.6512167792       -0.4050122322       -2.6338681602
 H         -3.3057185595        1.1443812480       -2.0846503811
 H         -5.1708261194        0.4777161495        0.9215900992
 H         -5.5269633198        2.1656255896        1.2443771682
 H         -3.2981924398        2.2644927303        1.6377301581
 H         -3.2595759899        2.5834431892       -0.1001474721
 O         -1.8458247294        0.4825884707        1.6605889593
 C         -0.9123747092       -0.5345362990        1.7634282700
 O         -0.3488670692       -0.6068306582        2.8754399000
 H          1.5825792407       -0.1568368494        0.3125508998
 C          1.9785603509       -0.9356051297       -0.3231517897
 C          1.4501917812       -2.2172202798       -0.2311567589
 C          1.9729735714       -3.2117962402       -1.0467675283
 C          2.9901358814       -2.9188664905       -1.9389308685
 C          3.5158711311       -1.6431440604       -2.0236376793
 C          3.0050482209       -0.6418628300       -1.2044707999
 N          3.4963179506        0.6690436700       -1.2740418907
 S          3.5566986403        1.6276407309        0.0929093387
 O          4.5162555801        2.6595586309       -0.2419152420
 O          3.8511387505        0.8545040917        1.2766772592
 C          1.9475976202        2.3787588906        0.2058350582
 C          1.2603096401        2.3526335912        1.4025558582
 C          0.0443014700        3.0111080610        1.4922462577
 C         -0.4605122001        3.6792318602        0.3880260573
 C          0.2362253299        3.6863960196       -0.8109137927
 C          1.4546133700        3.0344461998       -0.9050593522
 H          2.0317304100        3.0285828494       -1.8146766522
 H         -0.1637436002        4.2026871690       -1.6688011930
 H         -1.4006048703        4.2017805700        0.4671672370
 H         -0.5011657900        2.9896023415        2.4222407177
 H          1.6765768302        1.8107243318        2.2382818785
 H          4.2972854006        0.8009814098       -1.8738548308
 H          4.3109585611       -1.4183469807       -2.7180285394
 H          3.3833709516       -3.6980126208       -2.5742603780
 H          1.5809259717       -4.2138851502       -0.9903529077
 C          0.3446180412       -2.4496447594        0.7703957012
 H          0.7797629512       -2.3554226387        1.7769353411
 C         -0.3126639184       -3.8085324196        0.6467037720
 C          0.2802416318       -4.9997158890        1.3355722528
 C         -0.9918646883       -4.3946214090        1.8465079124
 H         -1.9154734582       -4.9354807593        1.7045713327
 H         -0.9566718985       -3.8238996984        2.7635003620
 H          0.2277197420       -5.9599785394        0.8449772234
 H          1.1802280018       -4.8469958785        1.9122656827
 H         -0.7856115784       -3.9548120903       -0.3175208479
 O         -1.1393933189       -1.8254236712       -1.6110936292
