  62
        -98.94142045
 C         -2.4148198148       -1.0336982793       -0.5807400257
 C         -3.4646146734       -0.5308845981        0.2335685723
 C         -3.9445484203        0.8182383361       -0.0782712002
 C         -3.3951766324        1.4990889956       -1.0998468840
 C         -3.7788125452        2.8811314964       -1.5536508751
 C         -3.1022095150        4.0055804402       -0.7574574541
 C         -3.6315675331        4.2059373415        0.6632294907
 H         -3.2318670467        5.1564695859        1.0220277385
 H         -4.7178038459        4.2978467690        0.6361548876
 C         -3.2309321265        3.1009719983        1.6510368877
 H         -2.8828317817        3.5540947657        2.5822552120
 H         -2.3899455113        2.5331432033        1.2438600904
 C         -4.3576710714        2.1327495661        2.0131678607
 H         -3.9498058393        1.3707794392        2.6823998846
 H         -5.1419840703        2.6696694781        2.5512838254
 C         -4.9903070936        1.4189911936        0.8115333056
 H         -5.6152343547        0.6050300030        1.1868393704
 H         -5.6159090565        2.1114861705        0.2489839363
 H         -3.2530537073        4.9344413328       -1.3124743147
 H         -2.0273204451        3.8108120719       -0.7204058539
 H         -3.4684188133        2.9633185002       -2.5974470335
 H         -4.8616813346        2.9972135438       -1.5016621200
 O         -2.4072362889        0.9777606830       -1.8712283847
 C         -1.8724025068       -0.2779160437       -1.6201084548
 O         -0.9473789147       -0.5809570836       -2.4018184306
 H          0.5362392115       -1.4848453429       -1.0080834953
 C          0.5335964077       -1.7614048215        0.0360448448
 C         -0.6273276761       -2.2700556723        0.6014269672
 C         -0.6212243599       -2.5875542133        1.9545849827
 C          0.5174047051       -2.3974567401        2.7186533696
 C          1.6700212444       -1.8822017597        2.1526608001
 C          1.6694807696       -1.5547288380        0.8033552705
 N          2.8347974407       -1.0013701114        0.2140454751
 S          3.1903156078        0.5672680996        0.7426308880
 O          3.4126385070        0.5277485518        2.1654621869
 O          2.1777029707        1.4961578312        0.2830088215
 C          4.7300497116        0.8608421824       -0.1039197616
 C          4.7295914852        1.5660990828       -1.2915693038
 C          5.9301659063        1.7575087750       -1.9576431429
 C          7.1025964058        1.2390988808       -1.4290525984
 C          7.0862663459        0.5316302524       -0.2360737674
 C          5.8897244829        0.3380143589        0.4352341499
 H          5.8286507853       -0.1974772608        1.3679195162
 H          8.0003741773        0.1311887750        0.1716010532
 H          8.0348860594        1.3893230406       -1.9501728965
 H          5.9451081032        2.3085174098       -2.8843333140
 H          3.7947788325        1.9566183669       -1.6620843464
 H          2.7252643688       -0.9554622928       -0.7926459788
 H          2.5537759564       -1.7042537876        2.7424946014
 H          0.5057662227       -2.6474502450        3.7688363171
 H         -1.5253686183       -2.9643121993        2.4108051495
 C         -1.8830519970       -2.4137459551       -0.2253833537
 H         -2.6552895100       -2.8615301142        0.4144431175
 C         -1.6694885302       -3.3159269807       -1.4236659377
 C         -1.5935664536       -4.7970105538       -1.2092888777
 C         -2.7887862943       -4.1976748273       -1.8859709646
 H         -2.9156298907       -4.3525021195       -2.9468668084
 H         -3.7183270485       -4.1549075111       -1.3372971251
 H         -0.8975679179       -5.3679219183       -1.8042296799
 H         -1.7127935058       -5.1614520542       -0.2002337000
 H         -1.0349734101       -2.8829392211       -2.1855221664
 O         -3.9817701292       -1.1880032488        1.1757171616
