  62
        -98.93901983
 C         -1.8280575639       -0.5306009422       -0.0138978651
 C         -2.9142066638       -0.5851369284        0.8965764646
 C         -4.1004930646        0.2379087111        0.5961306037
 C         -4.0890620383        1.0023943011       -0.5112686659
 C         -5.1806232237        1.8906606557       -1.0459609067
 C         -6.3146741399        1.0986906687       -1.7166679003
 C         -6.7727410413       -0.1407159951       -0.9525083912
 H         -7.4966021428       -0.6680192645       -1.5794927843
 H         -5.9213375475       -0.8084794258       -0.8095366852
 C         -7.4351686894        0.1334709918        0.3955519031
 H         -7.7918304930       -0.8246616677        0.7821958321
 H         -8.3065885145        0.7742426774        0.2430424582
 C         -6.5430541258        0.7719383552        1.4623875570
 H         -7.0636053465        0.6782597823        2.4200197368
 H         -6.4171582684        1.8365179380        1.2838762829
 C         -5.1832850190        0.1035937165        1.6393586444
 H         -4.7364892406        0.4643533928        2.5738171500
 H         -5.3287777057       -0.9724617370        1.7879412467
 H         -5.9636225182        0.7728845493       -2.6989008234
 H         -7.1614911236        1.7703525435       -1.8674200514
 H         -4.7191029118        2.5384513965       -1.7947102520
 H         -5.5668389557        2.5251525583       -0.2536645518
 O         -3.0217538589        1.0299912623       -1.3567652585
 C         -1.8767263498        0.2850277737       -1.1432735404
 O         -1.0077860894        0.4510690538       -2.0247208711
 O         -2.9024180179       -1.3093314851        1.9281012809
 C         -0.6229207601       -1.3961193834        0.3129502560
 C          0.4888217762       -0.5905627925        0.9413331498
 C          0.9159641245       -0.8506519959        2.2378944595
 C          1.9586644652       -0.1308781480        2.7960302042
 C          2.5967245818        0.8600882609        2.0723352459
 C          2.1713213849        1.1311789236        0.7782209056
 C          1.1308881504        0.4052812187        0.2187427545
 H          0.8025370800        0.6253119329       -0.7861627225
 N          2.8280670712        2.1278542212        0.0258747248
 S          4.4733943802        1.8817329171       -0.1880338782
 O          5.1729764514        2.2937247363        1.0032223525
 O          4.8224398311        2.5846953456       -1.4021199049
 C          4.6276317665        0.1181184318       -0.4060105593
 C          4.1360770792       -0.4354523377       -1.5714984086
 C          4.1744659893       -1.8110020040       -1.7280048829
 C          4.6928681193       -2.6060829845       -0.7173351829
 C          5.1829735429       -2.0347318436        0.4463593116
 C          5.1492716019       -0.6589386065        0.6078945500
 H          5.5183120809       -0.1738144740        1.4964214833
 H          5.5854392492       -2.6561155842        1.2298718469
 H          4.7143134093       -3.6776846624       -0.8383568934
 H          3.7952498864       -2.2554996108       -2.6344366444
 H          3.7409900050        0.2126293387       -2.3378453483
 H          2.3839545268        2.2968572270       -0.8659576116
 H          3.4155131427        1.4273956857        2.4846892496
 H          2.2786603098       -0.3440952018        3.8044017044
 H          0.4169409048       -1.6168817937        2.8127893443
 H         -0.9826319328       -2.1108220061        1.0649642940
 C         -0.0977321636       -2.1739073975       -0.8790517821
 C          0.7622789319       -3.3763462468       -0.6362834632
 C         -0.6327030045       -3.5450151183       -1.1574752294
 H         -0.7702114437       -3.8441329851       -2.1857806557
 H         -1.3854262756       -3.9338648608       -0.4871786869
 H          1.5880742350       -3.5605028820       -1.3051759246
 H          0.9568121962       -3.6512545125        0.3889943379
 H          0.1359101566       -1.5493205306       -1.7311089030
