  62
        -98.93382918
 C          1.9747499341        0.7113403053       -0.4101297388
 C          3.1118324281        1.2874040861        0.2135358390
 C          4.3876490261        0.5766163785        0.0451874125
 C          4.4072909998       -0.5714034108       -0.6551971139
 C          5.6062903544       -1.4554658649       -0.8494769287
 C          5.8657850828       -2.2791316122        0.4280751415
 C          7.1770598259       -1.9437110389        1.1391786436
 H          7.1468507960       -2.4197368416        2.1216271220
 H          8.0055568915       -2.3880962682        0.5835444398
 C          7.4786366430       -0.4524323413        1.3164556934
 H          8.2825507815       -0.3762579646        2.0517043601
 H          7.8709997616       -0.0439500437        0.3839234073
 C          6.3040466510        0.4193603379        1.7789666713
 H          5.5641278364       -0.1815994580        2.3081214127
 H          6.6859173728        1.1530967943        2.4917390473
 C          5.6092371177        1.2083059009        0.6534585396
 H          6.3334977413        1.4352739760       -0.1339555039
 H          5.2578800690        2.1606970023        1.0613929375
 H          5.0285546729       -2.1234764887        1.1119047456
 H          5.8734798367       -3.3417400192        0.1804419928
 H          5.3902171850       -2.1159619091       -1.6895599981
 H          6.4745579347       -0.8487642670       -1.0972336620
 O          3.2940141007       -1.1099857078       -1.2130961006
 C          2.0507853893       -0.4945503919       -1.1088759545
 O          1.1378133589       -1.1209289070       -1.6766027764
 O          3.0608480842        2.3535330279        0.8830733515
 C          0.6499764722        1.4350941552       -0.2372906990
 C         -0.4099311494        0.4730853823        0.2327629017
 C         -0.4074676110        0.0570602823        1.5607914571
 C         -1.3471227040       -0.8460586568        2.0215050603
 C         -2.3080947297       -1.3551793979        1.1662563235
 C         -2.3177661276       -0.9471784923       -0.1609491476
 C         -1.3829033122       -0.0275268667       -0.6178512679
 H         -1.3880823288        0.2658565382       -1.6558652562
 N         -3.2901042227       -1.4632166698       -1.0333167736
 S         -4.8787095407       -1.4892279409       -0.5163586274
 O         -5.0932560503       -2.6174988091        0.3553850974
 O         -5.6739113626       -1.4637500753       -1.7238724212
 C         -5.0816468682        0.0284820970        0.3997456704
 C         -5.3157319437       -0.0090248746        1.7588833489
 C         -5.4196426280        1.1852756767        2.4542643866
 C         -5.2843034835        2.3897757766        1.7822163123
 C         -5.0533600668        2.4110876801        0.4150001902
 C         -4.9489495478        1.2204726915       -0.2849495762
 H         -4.7767752087        1.2003929972       -1.3491242953
 H         -4.9509187060        3.3496721127       -0.1056779610
 H         -5.3601882806        3.3183870623        2.3256166946
 H         -5.6015720679        1.1717932574        3.5167855597
 H         -5.4140706094       -0.9670683942        2.2425253079
 H         -3.2066964547       -1.1352319732       -1.9836148885
 H         -3.0381960743       -2.0741917420        1.5009566031
 H         -1.3298822194       -1.1614859477        3.0536630784
 H          0.3499613310        0.4453084576        2.2277854738
 H          0.8415235217        2.1530404981        0.5764968791
 C          0.2149503285        2.2584215018       -1.4406385578
 C          1.2269812127        2.9895640840       -2.2697334220
 C          0.4655499346        1.8412826883       -2.8576806009
 H         -0.2947570044        2.0573719324       -3.5946918811
 H          0.9833495808        0.9107115093       -3.0288971768
 H          0.9955754780        3.9891248274       -2.6054373875
 H          2.2691597890        2.8394024140       -2.0280575116
 H         -0.7178639625        2.7803970471       -1.2488692338
