  62
        -98.94468517
 C         -1.6140037361       -1.2524537513       -0.2914049891
 C         -1.4288145904        0.1401034807       -0.4668179099
 C         -2.3361079835        1.0127840608        0.2941578282
 C         -3.2370781971        0.4695406528        1.1308067109
 C         -4.2509423063        1.2402931137        1.9247202676
 C         -5.5616249401        1.4055226314        1.1421181676
 C         -5.3691401403        1.9071040539       -0.2890837466
 H         -4.8377388632        1.1454735292       -0.8640555852
 H         -6.3616538049        2.0114545365       -0.7326071031
 C         -4.6168391288        3.2405770040       -0.3989858986
 H         -4.6277941618        3.7523004901        0.5640691018
 H         -5.1402882197        3.8803803411       -1.1125498264
 C         -3.1728996956        3.1151691864       -0.8882366694
 H         -3.1480898859        2.5248681421       -1.8074727853
 H         -2.8078830688        4.1168123705       -1.1302211387
 C         -2.1845137059        2.4965744449        0.1084804911
 H         -1.1740229064        2.6500469623       -0.2810240763
 H         -2.2547407179        3.0110473705        1.0692906156
 H         -6.2046735656        2.0972863132        1.6892739235
 H         -6.0629980239        0.4357588828        1.1005764485
 H         -4.4538301620        0.6919191454        2.8463555157
 H         -3.8397513084        2.2154027890        2.1792820815
 O         -3.3603232439       -0.8704612040        1.3093230076
 C         -2.5620253823       -1.7545912671        0.6055541429
 O         -2.7934568139       -2.9558817135        0.8539572202
 H          1.1784451732       -0.5799452496       -0.2813565121
 C          1.3735332516       -1.5752360898        0.0793726798
 C          0.4752388240       -2.5955778061       -0.2027471058
 C          0.7400429391       -3.8741899484        0.2721224467
 C          1.8725249438       -4.1215754038        1.0272532851
 C          2.7449137324       -3.0955583516        1.3383294597
 C          2.4894427677       -1.8106598801        0.8680419840
 N          3.3668222858       -0.7628021175        1.1742302860
 S          2.8522641040        0.8051889255        1.4864986780
 O          3.7249143284        1.2595512551        2.5521085500
 O          1.4368156519        0.8616854166        1.7568676947
 C          3.2926758675        1.6833278131        0.0006549978
 C          4.6201906136        2.0398468278       -0.1495023315
 C          5.0138135176        2.7054545479       -1.2979267506
 C          4.0769626261        3.0038937679       -2.2763777115
 C          2.7499876564        2.6415509881       -2.1101297473
 C          2.3486675152        1.9741504455       -0.9619275285
 H          1.3210195484        1.6767990569       -0.8191851220
 H          2.0166343731        2.8692523182       -2.8674126140
 H          4.3813528281        3.5222451367       -3.1720919122
 H          6.0458396264        2.9892312793       -1.4272321344
 H          5.3110508937        1.8015362390        0.6421290649
 H          4.1226583691       -1.0200783377        1.7918595686
 H          3.6169292478       -3.2819509686        1.9470890039
 H          2.0688018191       -5.1185791338        1.3918392360
 H          0.0407317069       -4.6708257209        0.0645269969
 C         -0.7801537155       -2.3138728910       -0.9948339367
 H         -1.3913426371       -3.2271654915       -0.9795350517
 C         -0.4490731335       -1.9876144802       -2.4374331319
 C         -0.1347712391       -3.1102063272       -3.3782653931
 C         -1.4228034278       -2.3559646117       -3.5142444945
 H         -1.5448365761       -1.6830684004       -4.3495261925
 H         -2.3367621472       -2.8485509625       -3.2144200205
 H         -0.1766944817       -4.1165340126       -2.9896717216
 H          0.6314608817       -2.9576602743       -4.1224693001
 H          0.0966211420       -1.0616766124       -2.5564511905
 O         -0.5651512616        0.6567207580       -1.2239618146
