  62
        -98.93993742
 C         -1.9294856056       -1.5331958106       -0.0230800411
 C         -1.6935816717       -0.3190311861       -0.7052929181
 C         -2.8418659125        0.5984857669       -0.8392570617
 C         -4.0277152083        0.2321159926       -0.3183973959
 C         -5.2917632783        1.0454336090       -0.2846966190
 C         -5.2620880420        2.1308377197        0.8111529204
 C         -3.9025695175        2.7896796864        1.0441493490
 H         -3.9708225600        3.3773622057        1.9634941515
 H         -3.1526920197        2.0143690870        1.2138835226
 C         -3.4296955406        3.7229672093       -0.0688268277
 H         -2.4299275587        4.0756814151        0.1967177727
 H         -4.0897264028        4.5932446957       -0.1043502887
 C         -3.3784316068        3.1161665407       -1.4697541214
 H         -2.9323700172        3.8624940524       -2.1341605338
 H         -4.3856017587        2.9376992288       -1.8369911141
 C         -2.5246745653        1.8570556826       -1.6092085508
 H         -2.5045945399        1.5731986426       -2.6692170439
 H         -1.4870841302        2.0978115102       -1.3527943407
 H         -6.0014856902        2.8945281810        0.5658363176
 H         -5.5617375996        1.6618344361        1.7510823137
 H         -5.4715491613        1.4773618450       -1.2653407821
 H         -6.1103640392        0.3556988264       -0.0695301336
 O         -4.2112859536       -0.9526624981        0.3287878626
 C         -3.1827945018       -1.8595684184        0.4941974892
 O         -3.4987324516       -2.8969979043        1.1110792786
 O         -0.5705430880        0.0003464061       -1.1766654633
 C         -0.7970302700       -2.5250775906        0.1785544350
 C          0.3020507746       -1.8693993402        0.9791614586
 C         -0.0077100751       -1.3755669724        2.2451423259
 C          0.9540456464       -0.7589635656        3.0205804134
 C          2.2457076524       -0.6108459028        2.5442127278
 C          2.5657795616       -1.1002835946        1.2847676937
 C          1.5998717369       -1.7350470410        0.5132437211
 H          1.8792291199       -2.0956789123       -0.4620025371
 N          3.8749055324       -0.9789593705        0.7777242554
 S          4.1124505906       -0.1367529811       -0.6524606435
 O          3.4210156726       -0.7931353835       -1.7296850232
 O          5.5506654900       -0.0382103407       -0.7831636987
 C          3.4373165781        1.4822496011       -0.3253371489
 C          4.3048588471        2.4805209300        0.0762106467
 C          3.7932847686        3.7233813436        0.4104136018
 C          2.4251622101        3.9427312928        0.3504801419
 C          1.5700477880        2.9286292637       -0.0504476705
 C          2.0732297442        1.6825290438       -0.3936970073
 H          1.4195297016        0.8860298787       -0.7141057331
 H          0.5045936938        3.0920007903       -0.0977467890
 H          2.0227899984        4.9078818597        0.6155415493
 H          4.4587837527        4.5135285340        0.7190118510
 H          5.3607809710        2.2644478335        0.1060085709
 H          4.5422983743       -0.6521854790        1.4632552967
 H          2.9998741553       -0.1240996053        3.1441478895
 H          0.6971562787       -0.3846988400        3.9999749100
 H         -1.0201387719       -1.4857600252        2.6105414240
 H         -1.2163838789       -3.3427932063        0.7826580280
 C         -0.3349042096       -3.0902330124       -1.1472512932
 C          0.3253845305       -4.4341556147       -1.1940506836
 C         -1.0630047653       -4.2615744292       -1.7313683283
 H         -1.2115290967       -4.2953584144       -2.8003400744
 H         -1.8871430429       -4.6681391143       -1.1628713265
 H          1.1335775062       -4.5861238613       -1.8936869750
 H          0.4451849950       -4.9642992166       -0.2611735378
 H          0.0145647515       -2.3284460865       -1.8349600363
