  62
        -98.94559522
 C         -2.3422094163       -0.0703088972        0.1272023639
 C         -1.5487863977        0.4924754863       -0.8966943343
 C         -1.2972280827        1.9421644120       -0.8195574366
 C         -1.7406067743        2.6294238470        0.2493008996
 C         -1.6530347622        4.1006013127        0.5975499514
 C         -0.7299719707        5.0350874589       -0.1788075381
 C          0.7605250174        4.7815863945        0.0392338852
 H          1.3194132561        5.4604618099       -0.6092299772
 H          1.0095649198        5.0284679149        1.0744689254
 C          1.2302380396        3.3522776921       -0.2211425957
 H          0.7881222358        2.6689595019        0.5076826637
 H          2.3120696891        3.3202440605       -0.0577830168
 C          0.9569233997        2.8271123953       -1.6286140853
 H          1.5100714873        1.8910486759       -1.7346924036
 H          1.3465210550        3.5330266551       -2.3652041412
 C         -0.5188438267        2.5396297905       -1.9580434962
 H         -1.0212647135        3.4336448515       -2.3226015641
 H         -0.5439075069        1.7986187389       -2.7624923689
 H         -0.9465983779        6.0477134979        0.1724512068
 H         -0.9688166767        5.0091213052       -1.2377834769
 H         -1.3858624060        4.1360143261        1.6588833544
 H         -2.6773902242        4.4834944197        0.5247666355
 O         -2.4499857917        2.0279833117        1.2497150048
 C         -2.7701908557        0.6841694974        1.2161916938
 O         -3.4309935828        0.2846957150        2.1983835659
 O         -1.0759439473       -0.1835336547       -1.8490251634
 C         -2.6567067662       -1.5563368109        0.1156645450
 C         -1.3647477710       -2.3374233494        0.1365588861
 C         -1.1066842230       -3.4345252278       -0.6753852585
 C          0.1207086011       -4.0732699611       -0.6189818629
 C          1.1203561838       -3.6192770487        0.2224265345
 C          0.8668457514       -2.5284033469        1.0460080386
 C         -0.3777891646       -1.9219392240        1.0210867727
 H         -0.5639208285       -1.0794961865        1.6712279360
 N          1.8548562982       -1.9993208845        1.9027416177
 S          2.3258706368       -0.4125600149        1.6270909305
 O          3.3883140298       -0.1678968338        2.5792095989
 O          1.1858162085        0.4626127443        1.7050472228
 C          3.0111863540       -0.4411663040       -0.0201443680
 C          4.3859105178       -0.4320607488       -0.1627687737
 C          4.9322667305       -0.5245683965       -1.4322463915
 C          4.0981273421       -0.6385822577       -2.5346271377
 C          2.7217302016       -0.6532774051       -2.3743388618
 C          2.1666820394       -0.5523464717       -1.1068593803
 H          1.0968344946       -0.5525308062       -0.9683437160
 H          2.0623389687       -0.7393123171       -3.2233305483
 H          4.5213041925       -0.7155573616       -3.5237075356
 H          6.0029824098       -0.5111770898       -1.5573795495
 H          4.9929940591       -0.3446276380        0.7238433807
 H          2.6794714414       -2.5793075010        1.9806482953
 H          2.0872673107       -4.0990563058        0.2427421817
 H          0.3086015108       -4.9240093963       -1.2559199295
 H         -1.8634010818       -3.7847426046       -1.3581357012
 H         -3.1956268817       -1.7591686823        1.0531312728
 C         -3.5551491983       -1.9017183661       -1.0533171429
 C         -4.5131773408       -3.0498081662       -0.9559719960
 C         -5.0257615995       -1.6419573662       -0.9346575710
 H         -5.5556839707       -1.2700138975       -1.7985729347
 H         -5.3824383990       -1.2386667500        0.0023333152
 H         -4.6965640236       -3.6454883204       -1.8374086832
 H         -4.5327099158       -3.6083063182       -0.0322848018
 H         -3.0875269466       -1.7015459689       -2.0102631993
