  62
        -98.94302799
 C          1.9683970606        0.1172462463       -0.2781950368
 C          2.8235707337       -0.7226100660        0.4770798690
 C          4.1518619602       -0.1721341156        0.7817229049
 C          4.4732413987        1.0741336906        0.3935608561
 C          5.7749397252        1.7800745419        0.6596814915
 C          6.8815669386        1.4483962565       -0.3509013907
 C          7.4819033591        0.0478079088       -0.2219601544
 H          8.3819983549        0.0275816212       -0.8396986822
 H          7.7917783903       -0.1194558807        0.8100507861
 C          6.5489596369       -1.0851929732       -0.6718986787
 H          5.7416825983       -0.6718716334       -1.2809991285
 H          7.1022605224       -1.7820305478       -1.3055719528
 C          5.9404154047       -1.8971363017        0.4715198598
 H          6.7326302696       -2.4222529330        1.0096792156
 H          5.2714564073       -2.6462282827        0.0407084365
 C          5.1347325187       -1.0650200233        1.4777138031
 H          4.5694294961       -1.7494489563        2.1146159426
 H          5.8059272541       -0.4777284292        2.1036988075
 H          7.6819186501        2.1783293398       -0.2088024104
 H          6.4846477364        1.5836707697       -1.3597912935
 H          6.1192962295        1.5478772068        1.6678481905
 H          5.5650081806        2.8503497375        0.6016753910
 O          3.6093572295        1.8673230948       -0.2948003794
 C          2.3602439165        1.4022199520       -0.6670139898
 O          1.6941892770        2.2185986043       -1.3368476739
 O          2.5197257300       -1.8718950174        0.8903705411
 C          0.5761130937       -0.2976532740       -0.7288730261
 C         -0.4390158817       -0.1051805075        0.3723497692
 C         -0.3484369586       -0.7972313540        1.5763334115
 C         -1.2885724745       -0.5985247349        2.5700374486
 C         -2.3463171584        0.2734138076        2.3769984961
 C         -2.4484797070        0.9657545883        1.1772305923
 C         -1.4921218186        0.7788299404        0.1878238080
 H         -1.5783900048        1.3355676927       -0.7333467238
 N         -3.5168343492        1.8542475890        0.9431861036
 S         -4.4933326441        1.5759320980       -0.3882065775
 O         -3.7387859595        1.7572197944       -1.6009887254
 O         -5.6353222323        2.4426328094       -0.2022724899
 C         -4.9902680453       -0.1288170866       -0.2141192243
 C         -4.1459868389       -1.1252162715       -0.6624541479
 C         -4.5006042001       -2.4478432083       -0.4488465361
 C         -5.6859704553       -2.7502071963        0.2035152290
 C         -6.5249477882       -1.7379136281        0.6444569464
 C         -6.1729355907       -0.4135583403        0.4404305051
 H         -6.7957082046        0.4052782232        0.7627906051
 H         -7.4477753363       -1.9760498359        1.1484232382
 H         -5.9568931397       -3.7811855675        0.3677286139
 H         -3.8461744858       -3.2335329222       -0.7904397625
 H         -3.2325980456       -0.8559237071       -1.1668621826
 H         -4.0942447002        2.0169709717        1.7565206330
 H         -3.0833422830        0.4237457663        3.1515201400
 H         -1.2023035922       -1.1348385403        3.5027226770
 H          0.4741092822       -1.4788214498        1.7283449698
 H          0.3137470272        0.3916560860       -1.5435419455
 C          0.5213058506       -1.7141850963       -1.2682237091
 C         -0.5295805081       -2.0663714925       -2.2756529067
 C          0.9070023325       -1.9678082283       -2.6927024308
 H          1.4427369068       -2.8750933933       -2.9279219462
 H          1.2074141734       -1.1172559800       -3.2881527366
 H         -0.9833546949       -3.0442512299       -2.2287619491
 H         -1.1994778322       -1.2823952346       -2.5986845326
 H          0.7967208889       -2.4644015743       -0.5393123460
