  62
        -98.94200551
 C         -0.7160897070       -1.3063977993        0.5378577556
 C         -1.1589029944       -0.8467761499       -0.7236609559
 C         -2.1459003531        0.2476244986       -0.7081336687
 C         -2.5426092917        0.7531491588        0.4725207245
 C         -3.6199481859        1.7748539814        0.7106357214
 C         -4.9701463131        1.0816624746        0.9657111047
 C         -5.7871615137        0.7836263369       -0.2907383607
 H         -6.6534306901        0.1937411345        0.0177193655
 H         -6.1617352948        1.7217425761       -0.7055932479
 C         -5.0431261360        0.0238340518       -1.3920825073
 H         -5.7896311102       -0.4420159655       -2.0384993112
 H         -4.4525115339       -0.7807265603       -0.9499811109
 C         -4.1398553005        0.9258600072       -2.2461383180
 H         -4.3519213696        0.7503034520       -3.3027270427
 H         -4.3907948591        1.9679082504       -2.0497220344
 C         -2.6306391470        0.7098470624       -2.0546541657
 H         -2.2832380380       -0.0601664376       -2.7504130737
 H         -2.0998694961        1.6307215795       -2.3149871842
 H         -4.7752029984        0.1524626837        1.5074311688
 H         -5.5736093493        1.7172945452        1.6169791927
 H         -3.6902666678        2.4647004288       -0.1241073150
 H         -3.3402578465        2.3271590803        1.6090490849
 O         -2.0377849890        0.3245633595        1.6630062137
 C         -1.1240910325       -0.7102621987        1.7291841796
 O         -0.7556143943       -1.0031393336        2.8860393300
 O         -0.7665191053       -1.3404219470       -1.8130883831
 C          0.2405399356       -2.4808667902        0.6175700903
 C          1.4740430822       -2.2275689928       -0.2139259654
 C          2.0722432122       -3.2019124978       -1.0027892136
 C          3.2127612175       -2.9088751023       -1.7298865542
 C          3.7827768671       -1.6506771667       -1.6798398614
 C          3.1948298703       -0.6697254606       -0.8880956216
 C          2.0532238241       -0.9663182404       -0.1623871023
 H          1.6023943383       -0.2062230140        0.4592068975
 N          3.7256555882        0.6247599220       -0.8440533285
 S          3.4710627857        1.6402105607        0.4489641946
 O          4.4333827145        2.7049668575        0.2555031789
 O          3.5554381182        0.9439191526        1.7120541270
 C          1.8379326388        2.3007866168        0.1998278171
 C          1.0007033593        2.4553608641        1.2863193469
 C         -0.2391956357        3.0439036342        1.0997052506
 C         -0.6205574387        3.4615224693       -0.1654713888
 C          0.2278509347        3.2904291074       -1.2481981076
 C          1.4718981836        2.7086512362       -1.0670129303
 H          2.1586122643        2.5659790451       -1.8845989052
 H         -0.0727431746        3.6142839734       -2.2318427307
 H         -1.5833076961        3.9263297629       -0.3049470965
 H         -0.8984287988        3.1698921567        1.9436291040
 H          1.3279395275        2.1037759372        2.2529712155
 H          4.6174793790        0.7581935291       -1.2955104126
 H          4.6701447893       -1.4226324631       -2.2500601777
 H          3.6655010884       -3.6728068812       -2.3436266217
 H          1.6438456637       -4.1894249794       -1.0529514170
 H          0.5521428066       -2.5511615317        1.6710332640
 C         -0.4865845791       -3.7559424854        0.2376284808
 C         -0.1079578474       -5.0638760257        0.8629623101
 C         -1.3943237840       -4.3959767479        1.2429761114
 H         -2.3228444506       -4.8276517044        0.9004779659
 H         -1.4626651749       -3.9280443792        2.2147035478
 H         -0.1565385622       -5.9581974231        0.2600526260
 H          0.6953758083       -5.0598513029        1.5843230060
 H         -0.8079820034       -3.7556165156       -0.7978643606
