  62
        -98.94436431
 C         -1.8415665724       -0.7886708053        0.2414436047
 C         -2.3428426377        0.5327068546        0.1590438352
 C         -3.7773444892        0.6849369685        0.4351605074
 C         -4.5140324026       -0.3901947613        0.7691289165
 C         -5.9829397845       -0.3908271821        1.0954837113
 C         -6.8953375267       -0.4535655246       -0.1371748235
 C         -6.9643277431        0.8321063156       -0.9622850424
 H         -7.7968995735        0.7207174442       -1.6597893535
 H         -7.1991639110        1.6713225589       -0.3068188075
 C         -5.6905223633        1.1416838844       -1.7612048317
 H         -5.0772065469        0.2405576565       -1.8339735936
 H         -5.9600221393        1.4277012773       -2.7804870883
 C         -4.8392932585        2.2728558841       -1.1840063959
 H         -5.3964266669        3.2113264090       -1.2298872174
 H         -3.9462286850        2.3814252837       -1.8050225991
 C         -4.3837007782        2.0447618219        0.2632855464
 H         -3.6138617791        2.7831952516        0.5011112092
 H         -5.2214736033        2.1793057539        0.9471778853
 H         -6.5659270369       -1.2777016817       -0.7740821853
 H         -7.9025898734       -0.6877616941        0.2149840086
 H         -6.1658872893       -1.2791059485        1.7038911923
 H         -6.2278980152        0.4920128938        1.6865248344
 O         -3.9847465208       -1.6386771644        0.8698224198
 C         -2.6477610628       -1.8719982274        0.5901784223
 O         -2.3001623309       -3.0655666310        0.6968908878
 H          1.7450575371        0.5987895962       -0.7225307418
 C          1.5418222160        0.5484536716        0.3338587891
 C          0.5051924771       -0.2312279039        0.8211325292
 C          0.2756786452       -0.2537468677        2.1953465820
 C          1.0441784584        0.5063925381        3.0538329195
 C          2.0698386892        1.2956565457        2.5627272009
 C          2.3150108975        1.3167640905        1.1958715371
 N          3.3450691654        2.1099138147        0.6722620112
 S          4.2476982839        1.5799767174       -0.6244134933
 O          5.4910835768        2.3141616048       -0.5201372315
 O          3.5227279128        1.7518995614       -1.8578256761
 C          4.5424020713       -0.1555107234       -0.3272287578
 C          4.3070123428       -1.0639592334       -1.3378578738
 C          4.5465090827       -2.4087718028       -1.1037189347
 C          5.0133554007       -2.8203008314        0.1344884387
 C          5.2504958874       -1.8947133681        1.1393874675
 C          5.0166141643       -0.5490431468        0.9088094696
 H          5.2004595373        0.1911975385        1.6700557155
 H          5.6157028186       -2.2179290749        2.1008409151
 H          5.1945509728       -3.8678301288        0.3168745780
 H          4.3654610289       -3.1280650503       -1.8865764156
 H          3.9375381727       -0.7018403654       -2.2833111929
 H          3.9054802533        2.5961006542        1.3558961510
 H          2.6660017773        1.8994481372        3.2298308078
 H          0.8461570624        0.4849894166        4.1148799451
 H         -0.5278181842       -0.8686362673        2.5779800329
 C         -0.3811855577       -1.0642987673       -0.0709511985
 H         -0.2124886547       -2.1238037951        0.1712696149
 C         -0.1296915262       -0.8572136927       -1.5497425257
 C          0.9309128430       -1.6441475010       -2.2560115358
 C         -0.5158226879       -1.9452657341       -2.5047265723
 H         -0.9467651158       -1.6692878984       -3.4555707244
 H         -0.9324569614       -2.8480690658       -2.0818172709
 H          1.4925738407       -1.1561863296       -3.0384144614
 H          1.5027509313       -2.3480215901       -1.6707148915
 H         -0.3010069795        0.1665144311       -1.8640141931
 O         -1.6350247386        1.5330101732       -0.1277260675
