  62
        -98.93968801
 C          2.5461607954        1.2048993451       -0.2496379084
 C          2.1296317588        0.0523915913       -0.9611867316
 C          3.0950411871       -1.0555396203       -0.9981583814
 C          4.2986756666       -0.9203398059       -0.4139290208
 C          5.3893689058       -1.9561230637       -0.3783646313
 C          5.2308641246       -2.9855178552        0.7491037928
 C          4.1067574717       -4.0030762557        0.5495500144
 H          4.2074782066       -4.4669779789       -0.4320062981
 H          4.2479094902       -4.7864066529        1.2967924239
 C          2.6919436321       -3.4260194699        0.7035160605
 H          2.7414887508       -2.4644116263        1.2202136001
 H          2.0913851486       -4.0915632613        1.3276785421
 C          1.9363294058       -3.2392671256       -0.6127088381
 H          0.9632931591       -2.7890566136       -0.3935394569
 H          1.7577186815       -4.2132249335       -1.0744417965
 C          2.6550687995       -2.3418072779       -1.6288795628
 H          3.5063660432       -2.8673712219       -2.0614303840
 H          1.9490413949       -2.0971957773       -2.4265774230
 H          6.1743919359       -3.5303361927        0.8273138311
 H          5.0752614149       -2.4517408878        1.6893601049
 H          5.4384442074       -2.4698197078       -1.3386479031
 H          6.3257550003       -1.4162797283       -0.2227918088
 O          4.6771679045        0.2208467411        0.2208992390
 C          3.8038629118        1.2871968527        0.3520085618
 O          4.2623845851        2.2438795444        1.0089612698
 O          1.0205022449       -0.0586844291       -1.5457005617
 C          1.6134419261        2.3895083666       -0.0465523736
 C          0.5388423058        1.9586754842        0.9231270802
 C          0.8474497871        1.9231445316        2.2813641988
 C         -0.0808507264        1.4834862693        3.2046106992
 C         -1.3315719937        1.0604653603        2.7897535521
 C         -1.6498830819        1.0910736659        1.4372126284
 C         -0.7194605157        1.5469052796        0.5118491358
 H         -0.9806176699        1.5411833290       -0.5325960760
 N         -2.9297134907        0.6962920307        1.0031834022
 S         -3.0574712726       -0.2766939731       -0.3757714492
 O         -2.2281751104       -1.4518151717       -0.2319299154
 O         -2.8600361742        0.5363642806       -1.5471302185
 C         -4.7806957329       -0.7277631690       -0.2595368860
 C         -5.1342292630       -1.9828962352        0.1972146893
 C         -6.4786072501       -2.3044060349        0.3034368281
 C         -7.4414271319       -1.3688037710       -0.0432015899
 C         -7.0714373988       -0.1124920345       -0.5004794219
 C         -5.7293688475        0.2138878530       -0.6111686875
 H         -5.3936738505        1.1725963765       -0.9702874730
 H         -7.8227951008        0.6115873650       -0.7713754860
 H         -8.4866815888       -1.6211439594        0.0406646420
 H         -6.7687820570       -3.2813774862        0.6551896172
 H         -4.3505583008       -2.6796975560        0.4483297101
 H         -3.4677497442        0.2828889553        1.7545345258
 H         -2.0566778465        0.7088378535        3.5084594540
 H          0.1718611910        1.4619779332        4.2540928437
 H          1.8338147972        2.2344880100        2.5975912249
 H          2.2177472475        3.1657162874        0.4433058824
 C          1.0816775704        2.9430703123       -1.3502848140
 C          0.4908458382        4.3198133146       -1.3694274646
 C          1.8158799903        4.0634457732       -2.0207400357
 H          1.8720382656        4.0685799451       -3.0989585961
 H          2.7052213153        4.4383965778       -1.5350341207
 H         -0.3668119936        4.5014597399       -1.9989235749
 H          0.4811305210        4.8701202960       -0.4405768147
 H          0.6353168133        2.1914851680       -1.9894212159
