  62
        -98.94052711
 C         -1.9250159060       -0.8545704272        0.7010186936
 C         -1.9054428827       -0.1987104827       -0.5550573494
 C         -2.2217577930        1.2376687287       -0.5331680690
 C         -2.4140620040        1.8564176241        0.6445056362
 C         -2.7871841692        3.3010965349        0.8073145218
 C         -4.3116536231        3.4818471012        0.8392106415
 C         -5.0425816175        2.7673744762       -0.2975837650
 H         -4.9246769875        1.6884287939       -0.1736392199
 H         -6.1063871749        2.9893019971       -0.1897509844
 C         -4.5757911001        3.1686296740       -1.7037535233
 H         -5.4544700599        3.3293709671       -2.3317602417
 H         -4.0319216085        4.1126630623       -1.6577771796
 C         -3.7110694012        2.1210709342       -2.4076204509
 H         -3.6191874527        2.4059518743       -3.4589685831
 H         -4.2123003084        1.1504357224       -2.3740103353
 C         -2.2901473907        1.9484308316       -1.8552347581
 H         -1.7288312488        1.3238420685       -2.5565489002
 H         -1.7942558444        2.9194955100       -1.7941884843
 H         -4.6857311963        3.0892378119        1.7876253430
 H         -4.5326400657        4.5500504569        0.8023741190
 H         -2.3655392490        3.6596172497        1.7480536947
 H         -2.3574646869        3.8741487891       -0.0121605537
 O         -2.3363855979        1.2125060924        1.8383083286
 C         -2.0928950893       -0.1498662664        1.8944234701
 O         -2.0488346416       -0.6123274076        3.0536192834
 H          0.7294857570       -1.1501438808        1.0514075665
 C          0.7571506430       -1.9079122402        0.2799557662
 C         -0.3851118730       -2.6538192409        0.0141287724
 C         -0.3311983530       -3.6237542788       -0.9770825031
 C          0.8341737184       -3.8174584166       -1.6988234513
 C          1.9564494967       -3.0479617855       -1.4570162985
 C          1.9153008768       -2.0821701243       -0.4564614161
 N          3.0473678811       -1.2986960650       -0.1659090380
 S          2.8183365625        0.2805391069        0.3832605815
 O          2.5357420854        0.2426677371        1.7977206764
 O          1.8609479821        0.9788364837       -0.4454113919
 C          4.4577578535        0.9340040733        0.1238520597
 C          5.4408054514        0.6363201733        1.0488530036
 C          6.7259363980        1.1092587020        0.8365561112
 C          7.0056053041        1.8674477924       -0.2908707762
 C          6.0084595783        2.1600707321       -1.2090622838
 C          4.7211571986        1.6883357699       -1.0036516039
 H          3.9117479687        1.8954559863       -1.6854103709
 H          6.2275626885        2.7525148960       -2.0826893357
 H          8.0064608852        2.2348008638       -0.4535973024
 H          7.5027523953        0.8858718661        1.5497976341
 H          5.1723519417        0.0521504887        1.9135469836
 H          3.7426978931       -1.3340941874       -0.8993715538
 H          2.8561129386       -3.1862652456       -2.0372238079
 H          0.8617355587       -4.5671061725       -2.4751813480
 H         -1.2082944190       -4.2059580144       -1.2069723026
 C         -1.6153826770       -2.3373336076        0.8287769309
 H         -1.3552387498       -2.4793841381        1.8916728956
 C         -2.7939762395       -3.2556984598        0.5437387316
 C         -4.2024498454       -2.7825085178        0.7427813993
 C         -3.6946008427       -3.0636114969       -0.6378096051
 H         -4.0631884524       -3.9419224494       -1.1474116909
 H         -3.4857211421       -2.2328639125       -1.2924007111
 H         -4.3444069979       -1.7527024593        1.0384251937
 H         -4.9156914227       -3.4644796373        1.1808711514
 H         -2.5877212039       -4.2799725721        0.8389129533
 O         -1.6520255748       -0.7727874009       -1.6456764577
