  62
        -98.94261328
 C         -2.6091786104       -1.2818686391        0.0538776504
 C         -2.4424573899       -0.2150304194       -0.8617793699
 C         -3.5355523097        0.7647193309       -0.8991894304
 C         -4.6178282199        0.5922002013       -0.1189160406
 C         -5.8202399197        1.4949632616       -0.0607538011
 C         -5.6477159497        2.7024082318        0.8711636986
 C         -4.7083650793        3.7936591615        0.3558143186
 H         -5.0061446490        4.0806744813       -0.6531543116
 H         -4.8492491093        4.6658432617        0.9973710183
 C         -3.2223903794        3.4080319411        0.3668374890
 H         -3.0749106897        2.5421307713        1.0164497393
 H         -2.6366750993        4.2271008511        0.7899796289
 C         -2.6368187092        3.0971482706       -1.0106817508
 H         -2.6530970888        3.9983930205       -1.6274948310
 H         -1.5945472793        2.7954445104       -0.8786051205
 C         -3.3617417193        1.9752604706       -1.7656540507
 H         -4.3267914491        2.3272135307       -2.1294598610
 H         -2.7477492491        1.6853955602       -2.6217456504
 H         -5.2947978400        2.3463864020        1.8419054888
 H         -6.6362388196        3.1434688221        1.0188885983
 H         -6.0686569994        1.8407400114       -1.0644930812
 H         -6.6475580200        0.8875361319        0.3126235989
 O         -4.7537193904       -0.4676823084        0.7228575197
 C         -3.7458338406       -1.4098003086        0.8515625202
 O         -3.9784195510       -2.3008179783        1.6942389203
 H          0.9778762596       -2.4249950202       -0.9860637585
 C          0.9512506295       -1.7947930499       -0.1115323987
 C         -0.2274039506       -1.6441491195        0.5979844010
 C         -0.2259314907       -0.8255356292        1.7255884108
 C          0.9227440594       -0.1688481593        2.1188493909
 C          2.0961923495       -0.3060188298        1.3959948912
 C          2.1082573596       -1.1235337301        0.2749150014
 N          3.2665938697       -1.2590916206       -0.4885352283
 S          4.7840576497       -0.7688984108       -0.0372373481
 O          5.6483894299       -1.2635948112       -1.0855869378
 O          5.1061870593       -1.1964711205        1.3042511821
 C          4.7217853702        1.0104770292       -0.1058952986
 C          5.2838020501        1.7520991494        0.9144416013
 C          5.2410616304        3.1355507194        0.8417863110
 C          4.6399530208        3.7506396292       -0.2453856593
 C          4.0819741309        2.9919898991       -1.2633321793
 C          4.1231941305        1.6085597391       -1.1970250689
 H          3.6951506206        0.9910862590       -1.9694661788
 H          3.6119785612        3.4725040089       -2.1064872495
 H          4.6043849911        4.8272731792       -0.2999057696
 H          5.6739499904        3.7271016195        1.6325032209
 H          5.7344414298        1.2328001595        1.7453754616
 H          3.2290484398       -1.8878637808       -1.2730731782
 H          2.9966907796        0.1982594001        1.7047855012
 H          0.9084193893        0.4616372309        2.9952107207
 H         -1.1439344808       -0.7112220888        2.2867540506
 C         -1.5164215707       -2.3253078993        0.2056654409
 H         -1.8263114310       -2.9731358690        1.0383887410
 C         -1.4147984006       -3.1640246996       -1.0507816989
 C         -0.8696848109       -4.5582466198       -0.9824683084
 C         -2.3335036808       -4.3357582595       -1.2140937587
 H         -2.7388254706       -4.5410504797       -2.1935696488
 H         -3.0196590710       -4.5444612791       -0.4060854188
 H         -0.5598775512       -4.9268294696       -0.0161326282
 H         -0.2719366308       -4.9220261801       -1.8048451881
 H         -1.2021559902       -2.5714163499       -1.9331324790
 O         -1.4392796598       -0.0850485998       -1.6097335097
