  62
        -98.93973641
 C          1.1643801525        1.3619825462        0.0185920505
 C          1.5717495164        0.3154376864        0.8807605737
 C          2.4720728109       -0.7000299367        0.3105337964
 C          2.8023940310       -0.6255008313       -0.9901235799
 C          3.6908351182       -1.5390026322       -1.7984543301
 C          4.9574936478       -2.0772334381       -1.1230268994
 C          5.6497082232       -1.0877189970       -0.1742053236
 H          6.7029233608       -1.0078996024       -0.4496880937
 H          5.2092037081       -0.0951752924       -0.2830491783
 C          5.5783167537       -1.5169274039        1.2930570535
 H          5.7815958966       -2.5881643120        1.3560146614
 H          6.3663028251       -1.0023873705        1.8482883127
 C          4.2560943562       -1.2154084495        1.9976249061
 H          4.1489026944       -0.1362520524        2.1370491679
 H          4.2957092569       -1.6636799983        2.9932978839
 C          2.9953267031       -1.7224412087        1.2781278859
 H          2.2093995286       -1.8535849720        2.0266530202
 H          3.1792687672       -2.6800861131        0.7985510688
 H          5.6451690265       -2.3567214917       -1.9231835930
 H          4.7246352677       -2.9908616451       -0.5783993523
 H          3.0901900020       -2.3810475150       -2.1553172210
 H          3.9694274389       -0.9550482140       -2.6793362862
 O          2.3050645766        0.3446470760       -1.8079639897
 C          1.4837914803        1.3575971986       -1.3384095473
 O          1.1226633913        2.1620243580       -2.2169836106
 O          1.2004944646        0.2343440095        2.0824399051
 C          0.2970848780        2.4679794245        0.5991080435
 C         -1.1265087763        2.2265099909        0.1652641586
 C         -1.7257082653        2.8866291700       -0.8995368252
 C         -3.0158712310        2.5638977508       -1.2860345650
 C         -3.7345996878        1.5875645521       -0.6193191441
 C         -3.1418117797        0.9227370468        0.4462467250
 C         -1.8492175239        1.2424383028        0.8302936700
 H         -1.3805181168        0.7126255084        1.6497606804
 N         -3.8661105008       -0.0900183196        1.1193546137
 S         -4.0793556000       -1.5066285704        0.2537163704
 O         -4.7966876557       -1.2045367046       -0.9575153741
 O         -4.7116855976       -2.4344511662        1.1625808778
 C         -2.4293380216       -2.0652439090       -0.1309198312
 C         -1.7468188714       -1.4691412648       -1.1728428356
 C         -0.4466597443       -1.8692223644       -1.4348668763
 C          0.1440987721       -2.8512157164       -0.6551476866
 C         -0.5515896991       -3.4343838167        0.3919100347
 C         -1.8497059652       -3.0346143094        0.6626647306
 H         -2.4293202400       -3.4634420220        1.4644526397
 H         -0.0843703332       -4.1941453149        0.9973811203
 H          1.1547448963       -3.1620575147       -0.8645563634
 H          0.1009818384       -1.4046661401       -2.2404691747
 H         -2.2359856754       -0.7120763452       -1.7648040067
 H         -3.4690734867       -0.3208192690        2.0203424546
 H         -4.7329815393        1.3146472849       -0.9197486555
 H         -3.4682033267        3.0809683601       -2.1187959257
 H         -1.1732469395        3.6376296479       -1.4396192258
 H          0.3411285571        2.3266487318        1.6878677605
 C          0.8158775839        3.8505220648        0.2689909246
 C          0.3037873547        5.0253259066        1.0457607820
 C          1.7097334722        4.5484248591        1.2481734561
 H          2.5199259376        5.1514766637        0.8665082790
 H          1.9464573128        4.0327540056        2.1675368390
 H          0.1465961407        5.9583717265        0.5269182258
 H         -0.4155187815        4.8304337127        1.8268926255
 H          1.0306494353        3.9924140655       -0.7824666029
