  62
        -98.94459544
 C         -1.6497999285       -1.4548473812        0.1967448866
 C         -1.8161738650       -0.3796483323        1.1095209617
 C         -3.0470291489        0.4064371029        0.9766981735
 C         -3.9204153219        0.1103177673       -0.0031613242
 C         -5.2438497888        0.7836478522       -0.2481172689
 C         -5.1520284976        2.0880211087       -1.0515982703
 C         -4.5724112051        3.2806226038       -0.2902194825
 H         -5.1055597144        3.4015072115        0.6532921404
 H         -4.7680718477        4.1708728769       -0.8910552049
 C         -3.0636909334        3.1858655665       -0.0237164228
 H         -2.5903874019        4.1390772892       -0.2699088846
 H         -2.6310330118        2.4276208583       -0.6810499407
 C         -2.6973343319        2.8577871647        1.4237362212
 H         -3.0373977842        3.6632540200        2.0784878596
 H         -1.6088965445        2.7999749319        1.5060230541
 C         -3.2796848580        1.5345893497        1.9369691776
 H         -4.3464153109        1.6456958376        2.1331871337
 H         -2.7775971624        1.2804442566        2.8740299551
 H         -6.1650257888        2.3451960506       -1.3693341137
 H         -4.5587677007        1.9044689343       -1.9501666355
 H         -5.7355506143        0.9776094367        0.7058864659
 H         -5.8511262334        0.0734016865       -0.8133293107
 O         -3.6984187472       -0.8879723906       -0.8951661793
 C         -2.5718082922       -1.6966555475       -0.8229093626
 O         -2.5328790883       -2.5658694709       -1.7146330546
 O         -0.9792410344       -0.1043727668        2.0116250746
 C         -0.4318786590       -2.3393312559        0.4036417683
 C          0.7082910556       -1.9706052540       -0.5146103536
 C          0.6144958251       -2.1162461373       -1.8950775342
 C          1.6865060409       -1.7898367475       -2.7050153530
 C          2.8617318608       -1.3001194786       -2.1610411044
 C          2.9626599731       -1.1443699572       -0.7843234451
 C          1.8909544139       -1.4898680403        0.0279835234
 H          1.9862933887       -1.3658874006        1.0962629976
 N          4.1410146829       -0.6505385099       -0.1965561612
 S          4.0282155812        0.5996083304        0.9143153214
 O          5.3771169651        1.1112172600        1.0196823177
 O          3.4335300949        0.1244635934        2.1356078076
 C          2.9894584518        1.7972413458        0.0990481133
 C          1.6175780579        1.7513394746        0.2462975754
 C          0.8426852309        2.6293262813       -0.4962414986
 C          1.4418676372        3.5345283512       -1.3575134048
 C          2.8221426710        3.5745815272       -1.4844754530
 C          3.6029710543        2.6924153255       -0.7570435924
 H          4.6790973945        2.6884756556       -0.8224157308
 H          3.2878721409        4.2835786681       -2.1497532268
 H          0.8277344885        4.2118901583       -1.9296329172
 H         -0.2303488695        2.5935769191       -0.3967617469
 H          1.1658106025        1.0492095240        0.9300624518
 H          4.8805821003       -0.4608677141       -0.8582999367
 H          3.6955999140       -1.0430399897       -2.7964109992
 H          1.6042985135       -1.9117697464       -3.7744190439
 H         -0.3072024734       -2.4795235738       -2.3228426382
 H         -0.1017475947       -2.1304681098        1.4311313631
 C         -0.7413817910       -3.8204624562        0.2973780610
 C          0.1859892095       -4.8002012666        0.9486254177
 C         -1.1806525513       -4.5678100863        1.5186567638
 H         -1.9260561528       -5.3410856078        1.4087899212
 H         -1.2598662128       -4.0143006397        2.4433370930
 H          0.3819198570       -5.7355117342        0.4473771231
 H          1.0341533530       -4.4037912458        1.4870275734
 H         -1.1912563694       -4.1018329011       -0.6454559550
