  62
        -98.94653479
 C         -1.0857974308       -1.8066624104       -0.2236617896
 C         -1.2085374115       -0.6024970602       -0.9623975591
 C         -2.5256400215        0.0534254295       -0.9087623380
 C         -3.5206089710       -0.5049526908       -0.1982649775
 C         -4.8975994209        0.0708839089       -0.0397292164
 C         -4.9933586702        0.9659676085        1.2027351240
 C         -3.8766467603        2.0052040887        1.3051862535
 H         -4.0736944198        2.6093384984        2.1939028638
 H         -2.9215735101        1.5004021688        1.4718014127
 C         -3.7475940913        2.9233633291        0.0821733237
 H         -3.6153669512        3.9499795090        0.4306673139
 H         -4.6666111617        2.8942778491       -0.5053935057
 C         -2.5522681219        2.6033586095       -0.8177153672
 H         -1.6544909614        2.5180739195       -0.1990771279
 H         -2.4072274225        3.4464831797       -1.5000224671
 C         -2.6833645823        1.3368670697       -1.6743229275
 H         -3.6356474926        1.3528795198       -2.2095772669
 H         -1.8736390428        1.3460006801       -2.4100249881
 H         -5.9609326403        1.4715328284        1.1897252748
 H         -4.9527352095        0.3319756983        2.0915152237
 H         -5.1507248016        0.6415671191       -0.9312129360
 H         -5.6034035407       -0.7552141012        0.0646406039
 O         -3.3707049803       -1.6637931510        0.4929493521
 C         -2.1560946502       -2.3273525008        0.5084699910
 O         -2.1564795296       -3.3718081010        1.1931418907
 H          0.7131474794       -0.0324396504        0.5144924597
 C          1.3275000499       -0.7271793005        1.0611325291
 C          1.1721203200       -2.0902344904        0.8674936688
 C          1.9692409206       -2.9627198605        1.6013120580
 C          2.9005050312       -2.4761193206        2.5005411575
 C          3.0619471711       -1.1139937407        2.6819077778
 C          2.2634942605       -0.2339757206        1.9593423986
 N          2.3922552704        1.1467352694        2.1244881489
 S          1.7064567595        2.2647857196        1.1046193097
 O          2.3409903596        3.5111120096        1.4877907997
 O          0.2699229096        2.2417625493        1.2319273907
 C          2.2025134984        1.8607607102       -0.5607602907
 C          3.3525645384        1.1348755104       -0.7950414817
 C          3.7187801175        0.8671341309       -2.1041377021
 C          2.9414295367        1.3362146510       -3.1510589214
 C          1.7977437168        2.0756045608       -2.8988680104
 C          1.4221589276        2.3394100403       -1.5923434900
 H          0.5279921677        2.8933079701       -1.3561968993
 H          1.1888539462        2.4365322609       -3.7121974899
 H          3.2251162961        1.1196738414       -4.1691702816
 H          4.6063376875        0.2873125810       -2.3016110428
 H          3.9420407390        0.7715698002        0.0309830978
 H          3.1915217307        1.4823750294        2.6374646185
 H          3.7900142415       -0.7324065008        3.3808757374
 H          3.5107271517       -3.1635227607        3.0661415669
 H          1.8472488507       -4.0273939505        1.4718066378
 C          0.1954173194       -2.6194112603       -0.1568262107
 H         -0.1067823702       -3.6277898704        0.1589761292
 C          0.9003973785       -2.7261744098       -1.4983549812
 C          1.7309569584       -3.9331044595       -1.8080947621
 C          0.4200860579       -3.7261518895       -2.5047196512
 H          0.4211939372       -3.4471063692       -3.5474120711
 H         -0.4124202318       -4.3551361397       -2.2231146308
 H          1.7865160091       -4.7136864498       -1.0649439824
 H          2.6399297980       -3.7980150892       -2.3734176027
 H          1.2399111581       -1.7683138196       -1.8713819511
 O         -0.2857038820       -0.0852304799       -1.6444957496
