  62
        -98.94314626
 C         -1.2335561759       -1.0977520169       -0.0410147272
 C         -1.7672382901       -0.0887071072        0.7968819635
 C         -2.6614896308        0.8803943033        0.1498744705
 C         -2.9139599270        0.7644945238       -1.1666320732
 C         -3.8467603928        1.6497950778       -1.9404008615
 C         -5.2715897408        1.0785318734       -1.9540913503
 C         -5.7891109770        0.6755366271       -0.5731893173
 H         -6.8120134829        0.3152329224       -0.7024167416
 H         -5.1975284094       -0.1646088964       -0.2023282925
 C         -5.7720998620        1.8054032197        0.4659577262
 H         -6.7209677082        1.7976809988        1.0064868752
 H         -5.6949112700        2.7700144546       -0.0371718644
 C         -4.6621261387        1.6881231390        1.5120716449
 H         -4.6804436917        0.6885618884        1.9533685720
 H         -4.8729804061        2.4029866333        2.3118282472
 C         -3.2398773417        1.9680909945        1.0104631822
 H         -3.2168188349        2.9269629300        0.4886000496
 H         -2.5871503595        2.0337649796        1.8855654400
 H         -5.9380046856        1.8243361252       -2.3914329123
 H         -5.2839718197        0.1945497515       -2.5960412605
 H         -3.8479011222        2.6440738994       -1.4976066193
 H         -3.4835109674        1.7200522127       -2.9672771383
 O         -2.3749933148       -0.2113480145       -1.9423929353
 C         -1.5222031695       -1.1675921938       -1.4040218587
 O         -1.0933325481       -1.9937805726       -2.2313000512
 H          0.8302105576       -0.0374630399       -0.7811426733
 C          1.5307616286       -0.8500941655       -0.6336994169
 C          1.1125797609       -2.0033866481        0.0132634837
 C          2.0417129422       -3.0237503207        0.1937576953
 C          3.3434846954       -2.8865143324       -0.2548055485
 C          3.7523893363       -1.7323425883       -0.9006330009
 C          2.8302343794       -0.7172732000       -1.0997485163
 N          3.2461463196        0.4830705606       -1.7341755025
 S          4.0013617497        1.5424063194       -0.6740082541
 O          4.1415515390        2.7921316980       -1.3865430734
 O          5.2176748160        0.9264735513       -0.2104952014
 C          2.8445819650        1.7179458459        0.6713755531
 C          2.8993281088        0.8246981430        1.7224261914
 C          1.9270772377        0.8909601914        2.7069998163
 C          0.9172025645        1.8364561312        2.6213209472
 C          0.8755951543        2.7249723176        1.5580007440
 C          1.8435019167        2.6631266358        0.5686942314
 H          1.8447259772        3.3354119830       -0.2751880585
 H          0.0844295784        3.4549380005        1.4912724534
 H          0.1495431575        1.8675672171        3.3775352163
 H          1.9488079537        0.1964264536        3.5311143226
 H          3.6971758606        0.1001039993        1.7501741205
 H          2.4796184912        0.9714106870       -2.1772943627
 H          4.7654503951       -1.5975593497       -1.2421691073
 H          4.0499943254       -3.6872517900       -0.0989711470
 H          1.7411788766       -3.9299564577        0.6945838960
 C         -0.2880476587       -2.1097463434        0.5695323367
 H         -0.2367077386       -1.8454500620        1.6374675284
 C         -0.8469916291       -3.5154230272        0.4456667061
 C         -0.7015315046       -4.5010938543        1.5653757223
 C         -2.0388657416       -3.8930112565        1.2724288074
 H         -2.8048620092       -4.5079563987        0.8244141743
 H         -2.4214327869       -3.1488364196        1.9559752324
 H         -0.1907741469       -4.1769453379        2.4596934121
 H         -0.5478189288       -5.5408366710        1.3185483095
 H         -0.8094065768       -3.8882592688       -0.5715388016
 O         -1.5046562426       -0.0021891184        2.0248276000
