  62
        -98.94947831
 C         -0.8919751847       -1.7399004469       -0.2792346917
 C         -2.1832554922       -1.6698954286        0.2912388212
 C         -3.0358664137       -0.5766837115       -0.1877142981
 C         -2.5620300697        0.2845676770       -1.1061676011
 C         -3.3019717266        1.4644721973       -1.6763973149
 C         -3.2545038741        2.7138707211       -0.7852797403
 C         -4.1417558113        2.6614804408        0.4589353385
 H         -4.2069414171        3.6797960031        0.8477229791
 H         -5.1497693096        2.3531916085        0.1782166375
 C         -3.6085683174        1.7480454837        1.5715149408
 H         -2.5437286055        1.5592170732        1.4107020453
 H         -3.6898189416        2.2625269789        2.5324356202
 C         -4.3475299702        0.4166701560        1.7099284058
 H         -3.8465640044       -0.1720676923        2.4827703767
 H         -5.3731139055        0.6015195069        2.0392553648
 C         -4.3938677014       -0.4237637013        0.4280861381
 H         -5.0871664118        0.0197095766       -0.2865539669
 H         -4.7519658315       -1.4229071449        0.6901142134
 H         -2.2221627347        2.8882019514       -0.4702279231
 H         -3.5672118767        3.5645861354       -1.3957962039
 H         -2.8250154889        1.7003318442       -2.6301366246
 H         -4.3410058419        1.1927164878       -1.8660808467
 O         -1.3243721299        0.1652597783       -1.6546549642
 C         -0.4520853198       -0.8315567719       -1.2428744660
 O          0.6597202443       -0.8070591942       -1.8029144016
 O         -2.6025325546       -2.4811429195        1.1623844322
 C          0.0823482271       -2.7873862306        0.2203896322
 C          1.3451132633       -2.1434188720        0.7423294793
 C          2.5713210268       -2.7994326481        0.7436756389
 C          3.7035692182       -2.1723207768        1.2332904249
 C          3.6486741182       -0.8718487697        1.7016432152
 C          2.4283007106       -0.2071263284        1.7017843436
 C          1.2891385596       -0.8556543413        1.2559750634
 H          0.3491607024       -0.3260523999        1.2868372217
 N          2.3154719018        1.1247674376        2.1408023808
 S          1.4243314526        2.2060719898        1.2306875687
 O          1.8478560940        3.5051698161        1.7168592566
 O          0.0138076501        1.9339755110        1.3534226439
 C          1.9407809107        2.0410648730       -0.4692625799
 C          1.0146425917        2.3091430804       -1.4544103570
 C          1.4012197568        2.2425423836       -2.7821234064
 C          2.7065834599        1.9095404486       -3.1022476464
 C          3.6295900201        1.6507828179       -2.1020240249
 C          3.2487332642        1.7219383142       -0.7722818637
 H          3.9552005943        1.5236910888        0.0167566030
 H          4.6446940872        1.3878451864       -2.3530385257
 H          3.0040120602        1.8464993944       -4.1371939697
 H          0.6782786964        2.4373894287       -3.5580910185
 H          0.0027837294        2.5456417911       -1.1666004451
 H          3.1795873073        1.5462418847        2.4501111591
 H          4.5367443816       -0.3766356710        2.0644262557
 H          4.6464765802       -2.6973510467        1.2340167415
 H          2.6386289304       -3.8038149868        0.3582947978
 H         -0.4255210229       -3.2871016627        1.0599053221
 C          0.3593809207       -3.8154689854       -0.8600314501
 C          0.5651594869       -5.2584679209       -0.5102440076
 C         -0.7003147996       -4.8242432047       -1.1843328373
 H         -0.8580924155       -5.0939266887       -2.2177079623
 H         -1.6075939480       -4.7906975293       -0.5987317560
 H          1.2779423228       -5.8311681182       -1.0843687029
 H          0.5091765998       -5.5359960021        0.5316877819
 H          0.9258102300       -3.4011797645       -1.6864841419
