  62
        -98.93766587
 C         -2.0267499280       -1.1398002567       -0.0045897369
 C         -2.7653936806       -0.4211372125        0.9637151931
 C         -3.4597709690        0.7815491840        0.4858234126
 C         -3.3191509157        1.1635711139       -0.7964303527
 C         -3.9001547740        2.3968846067       -1.4365743856
 C         -5.4369452966        2.4576031153       -1.5338917742
 C         -6.1156685350        3.1936186247       -0.3721010085
 H         -5.4002114878        3.8898991228        0.0673755932
 H         -6.9349756232        3.7959608789       -0.7696634801
 C         -6.7065308811        2.3050536387        0.7267037608
 H         -7.6541249731        1.8890616979        0.3772934523
 H         -6.9237670345        2.9395739397        1.5886095156
 C         -5.8336844819        1.1349606819        1.1805646800
 H         -5.8572255624        0.3449057513        0.4263375840
 H         -6.2744907920        0.7116542433        2.0852221700
 C         -4.3603015117        1.4975982032        1.4502859874
 H         -4.2100545145        2.5746088690        1.3882622687
 H         -4.0717202865        1.1672627830        2.4503535759
 H         -5.8349874273        1.4480221102       -1.6315364133
 H         -5.6726666529        2.9890195510       -2.4572062147
 H         -3.4768760693        2.4263953200       -2.4428034600
 H         -3.5352651751        3.2748294519       -0.8979842902
 O         -2.5623525485        0.4663495398       -1.6875837058
 C         -1.9051328214       -0.6993582814       -1.3230138859
 O         -1.2625196003       -1.2350645685       -2.2447908025
 O         -2.8297562802       -0.7602157436        2.1772336583
 C         -1.2796892501       -2.3925895388        0.4204107645
 C          0.2012879975       -2.1550972837        0.2562345991
 C          1.0391109691       -2.9652911419       -0.4970184669
 C          2.3792222303       -2.6462822947       -0.6383618504
 C          2.9115185551       -1.5237269914       -0.0316956370
 C          2.0833886005       -0.7115967534        0.7325833002
 C          0.7449851035       -1.0353226408        0.8755801667
 H          0.0985609260       -0.3960158324        1.4656010269
 N          2.6197483489        0.4388360766        1.3525891791
 S          3.1751860115        1.6315097826        0.2992433572
 O          3.1235002223        2.8627157078        1.0585500231
 O          2.4460355525        1.6156968338       -0.9489940104
 C          4.8766372543        1.1871595156        0.0241452736
 C          5.7318061257        1.1781865559        1.1089573126
 C          7.0583348544        0.8297277349        0.9111811020
 C          7.5043335139        0.5000815209       -0.3602730353
 C          6.6335817299        0.5172552809       -1.4392657046
 C          5.3049123648        0.8640194261       -1.2483883316
 H          4.5884838456        0.8853083460       -2.0542347063
 H          6.9817126227        0.2610306726       -2.4269756834
 H          8.5370135384        0.2283087365       -0.5117765894
 H          7.7386829869        0.8154106217        1.7473139845
 H          5.3441610675        1.4463383006        2.0774988454
 H          1.9795178344        0.8586502924        2.0130411775
 H          3.9530744559       -1.2705966482       -0.1442620896
 H          3.0173852234       -3.2805330403       -1.2344045588
 H          0.6407306639       -3.8383357547       -0.9867141052
 H         -1.4911960976       -2.5076804130        1.4937800626
 C         -1.7948561740       -3.6113356767       -0.3132876868
 C         -1.6420619869       -4.9719687600        0.2962808320
 C         -2.9938784021       -4.3296005498        0.2267972671
 H         -3.7177970360       -4.7205758862       -0.4722661818
 H         -3.4300984232       -3.9511039625        1.1397739541
 H         -1.4394696703       -5.8087844225       -0.3546134758
 H         -1.1603860501       -5.0351746896        1.2601574134
 H         -1.7119369219       -3.5168181083       -1.3899014478
