  62
        -98.93299652
 C         -1.6818587375       -0.3683248809        0.1367844867
 C         -2.8577086442       -0.7905421594        0.8075612964
 C         -4.1408290586       -0.2414636284        0.3328377238
 C         -4.1307119244        0.6716953288       -0.6540083878
 C         -5.2936408473        1.3754362425       -1.3064536382
 C         -6.3987118429        1.8947633945       -0.3739794189
 C         -7.7060840257        1.1076673178       -0.4812331780
 H         -8.5279592375        1.7503102268       -0.1576374455
 H         -7.8790556942        0.8627433683       -1.5313365383
 C         -7.7649333329       -0.1714750929        0.3520131708
 H         -7.8444212572        0.0897354500        1.4095310227
 H         -8.6805122739       -0.7014861536        0.0790302657
 C         -6.5779808856       -1.1209331045        0.1774577017
 H         -6.2852173819       -1.1767660215       -0.8705225965
 H         -6.9049124532       -2.1209381076        0.4704297795
 C         -5.3638070753       -0.7534956707        1.0436385665
 H         -5.6567782179       -0.0287575724        1.8087868678
 H         -5.0184589257       -1.6384000188        1.5872159825
 H         -6.6062817605        2.9300022389       -0.6498263079
 H         -6.0432530040        1.9016297879        0.6553015360
 H         -5.7253970072        0.7078909960       -2.0566003700
 H         -4.8476626490        2.2095393831       -1.8532643126
 O         -2.9734428288        1.0843987029       -1.2419216624
 C         -1.7299110006        0.5840715826       -0.8818339460
 O         -0.7916203621        1.0696966985       -1.5396242377
 O         -2.8394455047       -1.6036476516        1.7699663444
 C         -0.3641670415       -0.9468359920        0.6237638326
 C          0.6271675516        0.1518537863        0.9013488746
 C          0.5941941192        0.8270825702        2.1171169054
 C          1.4988097060        1.8365379442        2.3937422529
 C          2.4509434530        2.2005372018        1.4571589920
 C          2.4776479837        1.5445544004        0.2354710404
 C          1.5837314478        0.5182365625       -0.0327375094
 H          1.6134113821        0.0195683902       -0.9890630963
 N          3.4665495814        1.9008852175       -0.7162256889
 S          4.9749524863        1.2603588892       -0.3696030813
 O          5.4539540394        1.8490371358        0.8546657020
 O          5.7869521975        1.4708481305       -1.5465848411
 C          4.6651935394       -0.4805565155       -0.1322622874
 C          4.7034716776       -1.3199104492       -1.2276829991
 C          4.3593704498       -2.6520172961       -1.0639572823
 C          3.9705363507       -3.1153010530        0.1838216259
 C          3.9342167854       -2.2586528679        1.2736513282
 C          4.2821376795       -0.9266312441        1.1168883373
 H          4.2657701232       -0.2293634316        1.9385972565
 H          3.6269083417       -2.6205909108        2.2417683621
 H          3.6929023118       -4.1504473384        0.3080348634
 H          4.3882697783       -3.3219204716       -1.9084864392
 H          5.0104228214       -0.9183760534       -2.1803673674
 H          3.2043161259        1.6413700975       -1.6574446974
 H          3.1756807860        2.9733655302        1.6558553607
 H          1.4629930982        2.3448655481        3.3453721118
 H         -0.1527917111        0.5503697622        2.8482559167
 H         -0.6203427499       -1.4246959279        1.5826017135
 C          0.2247930071       -2.0377419529       -0.2594618282
 C         -0.6612012118       -3.0641071613       -0.8970476225
 C          0.0673809047       -2.0700893921       -1.7487756678
 H          0.9035833249       -2.4173604255       -2.3383172222
 H         -0.4979420325       -1.2807199817       -2.2187885408
 H         -0.3356594534       -4.0929791258       -0.9094691312
 H         -1.7276561278       -2.9428382957       -0.7736936372
 H          1.1751272657       -2.3911685484        0.1297968394
