  62
        -98.93974759
 C          2.2131422007        0.7739934742        0.1308832515
 C          2.4374777680       -0.3924215852        0.9006509433
 C          3.1680717803       -1.4725344833        0.2290713305
 C          3.5297947852       -1.3313204911       -1.0592920507
 C          4.2616079993       -2.3508028275       -1.8894162406
 C          5.7859160990       -2.3194538469       -1.7115498847
 C          6.2979365103       -2.8727609270       -0.3809955016
 H          5.8749565112       -3.8638452118       -0.2139189560
 H          7.3787473083       -2.9922903459       -0.4791750480
 C          6.0095394660       -1.9763244410        0.8313455961
 H          6.9102710778       -1.8908013922        1.4433940536
 H          5.7592536945       -0.9695019232        0.4889714413
 C          4.8903039598       -2.4814900842        1.7419201294
 H          5.1871215626       -3.4292798471        2.1964423762
 H          4.7473031533       -1.7533172122        2.5444141045
 C          3.5424909306       -2.6792596066        1.0358846904
 H          2.7732083777       -2.8213128580        1.7989050110
 H          3.5759397957       -3.5656974944        0.4029734645
 H          6.2200346121       -2.9141040529       -2.5185618277
 H          6.1306058001       -1.2901970974       -1.8351595647
 H          3.8877167259       -3.3490202275       -1.6601332457
 H          4.0318916217       -2.1239503221       -2.9327031811
 O          3.2432535953       -0.2166839443       -1.7827174226
 C          2.5963463139        0.8682342412       -1.2074387520
 O          2.4239314335        1.8282723388       -1.9809471240
 O          2.0396894841       -0.5268752151        2.0899170539
 C          1.4960968803        1.9472442706        0.7754486488
 C          0.1669444835        2.1648225862        0.0943046164
 C         -0.2078070247        3.3596089750       -0.5034375367
 C         -1.4437906566        3.4760697050       -1.1172330869
 C         -2.3285325169        2.4147233440       -1.1445214303
 C         -1.9686946892        1.2173108402       -0.5378129950
 C         -0.7320192355        1.1041838359        0.0785029117
 H         -0.4484778981        0.1726626840        0.5532322116
 N         -2.8561695874        0.1228268853       -0.5667682023
 S         -4.4686366443        0.4451158826       -0.1714262202
 O         -5.1201582746        1.0010619793       -1.3305976930
 O         -4.5341234884        1.2440872311        1.0321869723
 C         -5.0859777057       -1.1973212906        0.1363583891
 C         -5.4668748479       -1.9766032226       -0.9394988873
 C         -5.9267766601       -3.2625163329       -0.7045453808
 C         -5.9969780048       -3.7449499193        0.5940706806
 C         -5.6126250590       -2.9502374553        1.6635837014
 C         -5.1505220695       -1.6634977394        1.4356631931
 H         -4.8498917415       -1.0077315395        2.2371862589
 H         -5.6713128251       -3.3266955953        2.6721842795
 H         -6.3568640550       -4.7455431742        0.7745785114
 H         -6.2292823805       -3.8827467720       -1.5327782957
 H         -5.4038727300       -1.5561881258       -1.9295579723
 H         -2.5070571626       -0.6538650057       -0.0210867011
 H         -3.2940804059        2.4981389558       -1.6165393788
 H         -1.7217749566        4.4092496571       -1.5838597441
 H          0.4675719798        4.1989386945       -0.4966856123
 H          1.2950057487        1.6308092673        1.8098222365
 C          2.3826250831        3.1731186147        0.8069971259
 C          2.1468123358        4.2401423622        1.8324893040
 C          3.3424779087        3.3440102229        1.9447503934
 H          4.3187868931        3.7560483250        1.7380854702
 H          3.3433787863        2.5847704262        2.7133347129
 H          2.3032701693        5.2703260102        1.5507178481
 H          1.3343530496        4.0926266266        2.5279417951
 H          2.7188691535        3.4737377791       -0.1785774809
