  62
        -98.94042967
 C          2.0477009505        0.4513419796        0.1100493514
 C          2.7226095503       -0.7277438310        0.5193682699
 C          4.0664007304       -0.9344998105       -0.0285833701
 C          4.5751505006       -0.0392528594       -0.8941998589
 C          5.9184559107       -0.1205573687       -1.5672638788
 C          7.0791608107        0.4109890701       -0.7153747579
 C          7.4868120704       -0.4813378315        0.4576474009
 H          7.6566174703       -1.4967839211        0.0982405296
 H          8.4411123204       -0.1043475221        0.8308569216
 C          6.4788431602       -0.5045709829        1.6152009008
 H          5.7987864503        0.3453577473        1.5229531618
 H          7.0095468701       -0.3883300142        2.5628604410
 C          5.6543308100       -1.7882668530        1.7121344890
 H          6.3123689999       -2.6307361133        1.9365558779
 H          4.9497818199       -1.6815196540        2.5409054890
 C          4.8505655202       -2.1196617712        0.4478553084
 H          5.5160016503       -2.4765762302       -0.3381636720
 H          4.1390367500       -2.9127621614        0.6908754673
 H          7.9423220508        0.5233427608       -1.3755026777
 H          6.8141400407        1.4034184296       -0.3435780367
 H          5.8495562909        0.4869370725       -2.4722585080
 H          6.1206128906       -1.1524070383       -1.8563574101
 O          3.8897511008        1.0656959112       -1.2835815075
 C          2.6188347908        1.3499390507       -0.7924158273
 O          2.1389813410        2.4060818014       -1.2408990560
 O          2.2198219601       -1.5676326620        1.3140504587
 C          0.6635502205        0.6704748290        0.6930376015
 C         -0.3921348295        0.0536774403       -0.1881585095
 C         -0.4499832892        0.3356521721       -1.5493462391
 C         -1.4331078092       -0.2283937268       -2.3419290000
 C         -2.3806579594       -1.0759413474       -1.7946478613
 C         -2.3354458496       -1.3583216692       -0.4363537816
 C         -1.3439824196       -0.7953965203        0.3568672292
 H         -1.3031418398       -1.0337781017        1.4110581589
 N         -3.3251126398       -2.1890530398        0.1268975771
 S         -4.9056148597       -1.6529743394       -0.0607327324
 O         -5.6586417499       -2.2966843407        0.9912429966
 O         -5.3406427795       -1.9152053775       -1.4084935628
 C         -4.7912569795        0.1037347203        0.2229558699
 C         -4.6887593697        0.5476911785        1.5266432205
 C         -4.4917727195        1.8986212882        1.7614701623
 C         -4.3871309993        2.7764449096        0.6932306135
 C         -4.4967259291        2.3155576613       -0.6091466071
 C         -4.7006473993        0.9663041917       -0.8506863489
 H         -4.7939252592        0.5701701730       -1.8482416095
 H         -4.4163472289        3.0010055324       -1.4374134262
 H         -4.2157056992        3.8248018293        0.8775603249
 H         -4.4107199296        2.2619712568        2.7733371428
 H         -4.7759210399       -0.1661759725        2.3303364196
 H         -3.1503785200       -2.4201090111        1.0947356368
 H         -3.1574732693       -1.5194842165       -2.3964105020
 H         -1.4633866790       -0.0043595954       -3.3974952797
 H          0.2805427709        1.0065488525       -1.9755202181
 H          0.6708920803        0.1055745477        1.6388716207
 C          0.3640847606        2.1242636386        1.0343327433
 C         -0.6864723892        2.9378478296        0.3452269643
 C         -0.9078818295        2.4712219578        1.7502931736
 H         -0.8704367595        3.1927885467        2.5518407546
 H         -1.6235359896        1.6766647177        1.9004030525
 H         -0.4699535591        3.9799723798        0.1686706357
 H         -1.2615817191        2.4736380807       -0.4402418164
 H          1.2566827406        2.6587915081        1.3416779842
