  62
        -98.94017048
 C          2.0782196867        1.4561891158        0.5219513659
 C          2.0479758026        0.2759213443        1.3091644430
 C          3.0783463080       -0.7283411541        1.0230131151
 C          3.9844152986       -0.4793845403        0.0602961916
 C          5.0429850216       -1.4428754772       -0.3903127367
 C          4.5390079363       -2.3134594979       -1.5505530777
 C          3.1695496704       -2.9466929908       -1.3022104849
 H          2.4150259441       -2.1580718077       -1.2512120594
 H          2.9346794922       -3.5602741980       -2.1745436661
 C          3.0890706911       -3.8077902157       -0.0339220895
 H          4.0934928372       -4.0757172027        0.2960155381
 H          2.5705098890       -4.7382245015       -0.2744880565
 C          2.3306437153       -3.1582397997        1.1250696143
 H          1.3652604522       -2.7896483523        0.7706268353
 H          2.1383361737       -3.9264633089        1.8787168020
 C          3.0512470435       -1.9990102786        1.8243116425
 H          2.4982041415       -1.7650661602        2.7386360828
 H          4.0622873050       -2.3029429420        2.1026866383
 H          5.2759030007       -3.0965677796       -1.7387103730
 H          4.4702343657       -1.6902454304       -2.4452038935
 H          5.9098807996       -0.8715167893       -0.7264514681
 H          5.3376610387       -2.0704601311        0.4485189586
 O          3.9999221324        0.6710786994       -0.6564010957
 C          3.0354508251        1.6572974062       -0.4731586230
 O          3.1626152977        2.6262763435       -1.2427014020
 H         -1.5020798032        1.8672096467        1.6992005310
 C         -1.4390065462        1.7765509814        0.6236082263
 C         -0.2416539788        2.0604904576       -0.0145715331
 C         -0.1658836881        1.9059054371       -1.3958981608
 C         -1.2730707537        1.4970139990       -2.1160749717
 C         -2.4691360028        1.2190385003       -1.4763513226
 C         -2.5485260201        1.3503462999       -0.0966197440
 N         -3.7516942615        1.0506327277        0.5640031706
 S         -4.5599551192       -0.3546981600        0.1460500402
 O         -5.2518292732       -0.1569147263       -1.1027948316
 O         -5.3896790159       -0.6617217789        1.2887368161
 C         -3.2892687995       -1.5906917836       -0.0509975134
 C         -2.6013683921       -1.9993681960        1.0743834629
 C         -1.5941267660       -2.9403715785        0.9405360106
 C         -1.2891874320       -3.4500642943       -0.3125333414
 C         -1.9883631912       -3.0292741680       -1.4329340128
 C         -2.9992337284       -2.0902273320       -1.3041613402
 H         -3.5711116292       -1.7429057746       -2.1489988452
 H         -1.7482182777       -3.4287640969       -2.4050837877
 H         -0.5021876544       -4.1809288122       -0.4146997137
 H         -1.0472208209       -3.2652727117        1.8112396354
 H         -2.8656978977       -1.5890714683        2.0357378956
 H         -3.7014183390        1.1505961018        1.5673565942
 H         -3.3405470716        0.9023529132       -2.0256167817
 H         -1.2047089685        1.3891985539       -3.1880002422
 H          0.7717351404        2.1070290049       -1.8931038634
 C          0.9700566415        2.4601354088        0.7883951406
 H          0.7181536289        2.3237695803        1.8522255615
 C          1.3793256385        3.9127645634        0.6050524406
 C          0.8254817119        4.8055274091       -0.4606835984
 C          0.4130942211        5.0030160063        0.9651402485
 H          0.7787215402        5.8667132475        1.4994550992
 H         -0.5889006512        4.7059360959        1.2377251209
 H          0.0995538307        4.3996375389       -1.1472946885
 H          1.4990019351        5.5176453112       -0.9124173146
 H          2.4176313149        4.0784143887        0.8716373206
 O          1.1916635181        0.0762087400        2.2123624741
