  62
        -98.94375898
 C          1.6952733101        1.4692042400       -0.3006027404
 C          2.7111990703        0.7402238700        0.3595818793
 C          3.0166119902       -0.5828478201       -0.1960477908
 C          2.3700100199       -1.0091049201       -1.2957931306
 C          2.5626621797       -2.3314623001       -1.9868561306
 C          2.0735573299       -3.5568204001       -1.1889060205
 C          3.1759308901       -4.2651912601       -0.3913934108
 H          3.0200590701       -5.3437897301       -0.4604159607
 H          4.1383896200       -4.0559578001       -0.8608473611
 C          3.2503397805       -3.9202534900        1.0992852792
 H          4.2123430106       -4.2735190400        1.4782845389
 H          2.4650521107       -4.4641482300        1.6298246694
 C          3.0892774406       -2.4414550600        1.4526724792
 H          2.0366108206       -2.1586485300        1.3585904995
 H          3.3486524409       -2.3121873300        2.5061235792
 C          3.9295405204       -1.4743779300        0.5934798290
 H          4.5274027406       -0.8266224700        1.2381143288
 H          4.6012525902       -2.0248617201       -0.0634627412
 H          1.2564970001       -3.2527270200       -0.5325367503
 H          1.6630321797       -4.2667827701       -1.9091277804
 H          3.6183266196       -2.4540181801       -2.2387325409
 H          1.9980999894       -2.2631562901       -2.9187971005
 O          1.4468639197       -0.2487992001       -1.9409020003
 C          1.0328044598        0.9646279499       -1.4178466002
 O          0.0892483097        1.4947606999       -2.0381860700
 O          3.3196258106        1.1698095700        1.3782705191
 C          1.1805344603        2.7552013400        0.3220145097
 C         -0.2602961196        2.5394403300        0.7207719101
 C         -1.2778475396        3.4553962400        0.4881983104
 C         -2.5854786495        3.1526354900        0.8304034708
 C         -2.9101249094        1.9268228700        1.3825764509
 C         -1.8957211693        1.0098120700        1.6321491606
 C         -0.5843295094        1.3352819300        1.3341037402
 H          0.1907168707        0.6117870000        1.5407828800
 N         -2.1592994792       -0.2738728400        2.1584991507
 S         -1.8384709495       -1.5651085300        1.1344080106
 O         -2.2537592993       -2.7409014500        1.8692348007
 O         -0.4640367496       -1.5342967900        0.7084996102
 C         -2.9488812698       -1.3021601800       -0.2361416891
 C         -4.1711013798       -1.9477106700       -0.2247190988
 C         -5.0797564601       -1.6853483000       -1.2365785385
 C         -4.7571117704       -0.7755737600       -2.2327720386
 C         -3.5286015904       -0.1337502200       -2.2273586589
 C         -2.6117199201       -0.3946550900       -1.2199634492
 H         -1.6498883501        0.0939232500       -1.2026003595
 H         -3.2670440306        0.5755285399       -2.9962466290
 H         -5.4655703406       -0.5648340800       -3.0182708484
 H         -6.0347184701       -2.1856475900       -1.2433271382
 H         -4.3755667196       -2.6475908000        0.5695851013
 H         -3.0953791191       -0.3774825200        2.5271527409
 H         -3.9345596893        1.6784154300        1.6157568512
 H         -3.3662212896        3.8732042400        0.6407590510
 H         -1.0491148797        4.4027864900        0.0281445603
 H          1.7781277806        2.9014167300        1.2342595095
 C          1.3865724001        3.9399630400       -0.5963571603
 C          1.5726174202        5.3136026800       -0.0259067004
 C          2.7336646501        4.5944229799       -0.6418350207
 H          3.1086619798        4.9358950199       -1.5948335608
 H          3.4980682802        4.1989169599        0.0110868491
 H          1.1529421801        6.1542435600       -0.5574601003
 H          1.5540519805        5.4153527300        1.0486542696
 H          0.8471107398        3.8392892899       -1.5311434802
