  62
        -98.94945797
 C          2.0539185873        0.3010261373       -0.3165845586
 C          1.4296218400        1.2456283851       -1.1640036111
 C          1.1169235124        2.5445752752       -0.5573708658
 C          1.3837084745        2.7517889013        0.7451273655
 C          1.1276409752        4.0219445299        1.5103693123
 C         -0.3150883335        4.1583000956        2.0159697611
 C         -1.3454543270        4.5179835910        0.9450220303
 H         -2.2579095564        4.8145348296        1.4662718735
 H         -0.9951896387        5.3827505144        0.3795384102
 C         -1.6814537888        3.3696579085       -0.0163787625
 H         -2.7649275707        3.3152695659       -0.1519851333
 H         -1.3746831990        2.4217970603        0.4340053394
 C         -1.0585041720        3.5059612943       -1.4057859549
 H         -1.3531356770        2.6383512457       -1.9998508360
 H         -1.4580208056        4.3968999251       -1.8960439339
 C          0.4732474836        3.5940278849       -1.4152295888
 H          0.8172258550        3.4357038613       -2.4407443096
 H          0.7911555653        4.5850164107       -1.0906703410
 H         -0.3228007931        4.9419288853        2.7775556447
 H         -0.6066590584        3.2206933776        2.4967285920
 H          1.7958183969        4.0025117583        2.3741400840
 H          1.3822629327        4.8840597434        0.8926203822
 O          1.9587896216        1.8081056790        1.5352848814
 C          2.2972809512        0.5616989790        1.0322730605
 O          2.8152462533       -0.2044839734        1.8681343868
 H         -0.1312288755       -1.0528906217       -0.1804068078
 C          0.3569808134       -1.9184364313        0.2356213657
 C          1.7040638311       -2.1223422119       -0.0343938888
 C          2.3228290381       -3.2470352958        0.4927595242
 C          1.6129782267       -4.1103419950        1.3107721899
 C          0.2913783159       -3.8638028324        1.6323177911
 C         -0.3432810202       -2.7497225860        1.0909350815
 N         -1.6829956491       -2.4707028791        1.3845587406
 S         -2.3557300569       -0.9468364034        1.2420699973
 O         -1.4068273941        0.1125221058        1.4898444521
 O         -3.5039072603       -0.9914339202        2.1234660940
 C         -2.9340294949       -0.9287563891       -0.4423741927
 C         -4.0136773258       -1.7353276892       -0.7486900121
 C         -4.4786539714       -1.7708580590       -2.0526225372
 C         -3.8573414948       -1.0051203012       -3.0282930849
 C         -2.7774816892       -0.1987602944       -2.7058321760
 C         -2.3107265996       -0.1578720750       -1.4011348064
 H         -1.4700375431        0.4604423994       -1.1263810094
 H         -2.2844918919        0.3951811336       -3.4594744837
 H         -4.2159266085       -1.0341179119       -4.0450858116
 H         -5.3202966486       -2.3951750470       -2.3056743355
 H         -4.4717489280       -2.3061801605        0.0417359953
 H         -2.0880732280       -3.0093801859        2.1343985158
 H         -0.2456880968       -4.5190505911        2.3009761105
 H          2.1054232246       -4.9774195072        1.7246527096
 H          3.3626804444       -3.4380782807        0.2840565692
 C          2.4064695661       -1.0734078321       -0.8611837209
 H          2.0022956918       -1.1002658861       -1.8840697208
 C          3.9082776939       -1.2539765261       -0.9224755248
 C          4.5181251046       -2.1720032200       -1.9384198363
 C          4.6599789335       -0.6879965741       -2.0885747818
 H          5.6254544629       -0.2388865575       -1.9101532684
 H          4.0828889864       -0.1912563210       -2.8546877520
 H          5.3908790737       -2.7427265587       -1.6591851872
 H          3.8493186725       -2.6873186522       -2.6108727978
 H          4.3735501825       -1.1854483825        0.0547955978
 O          1.1493407247        1.0168149157       -2.3724377147
