  62
        -98.93758316
 C         -2.2563070584       -0.7239671958       -0.1335990509
 C         -3.5782976148       -1.1930333966       -0.3463837514
 C         -4.6477464440       -0.4602487140        0.3434748145
 C         -4.3223581489        0.5551888900        1.1633815072
 C         -5.3096259565        1.4286174493        1.8807027421
 C         -5.6708511633        2.6609348165        1.0393632935
 C         -6.0516430770        2.3334347906       -0.4046214736
 H         -6.3153755206        3.2742630104       -0.8926029420
 H         -5.1745845211        1.9392940151       -0.9236010446
 C         -7.2137565750        1.3402359664       -0.5456007451
 H         -7.7680799982        1.2840030112        0.3918266146
 H         -7.9014159957        1.7128134266       -1.3076406440
 C         -6.7968479099       -0.0685047009       -0.9723784434
 H         -6.1626922822       -0.0095657631       -1.8607961046
 H         -7.6984350263       -0.6203441047       -1.2509216610
 C         -6.0631148805       -0.8970213844        0.0897505992
 H         -6.6383141079       -0.8983492014        1.0176380299
 H         -5.9973905817       -1.9254769344       -0.2770440357
 H         -6.4973812041        3.1814309064        1.5264440399
 H         -4.8090879899        3.3323983054        1.0218630045
 H         -6.2050363986        0.8508873880        2.1014491499
 H         -4.8591622939        1.7586236541        2.8182411985
 O         -3.0402478488        0.9323135798        1.3982179261
 C         -1.9734744385        0.3145979904        0.7546001455
 O         -0.8621377273        0.7768861004        1.0739117732
 H          1.4697175711       -0.4998511208       -0.9741298401
 C          1.2823722532       -1.1614525150       -0.1460843874
 C          0.0231409047       -1.7054308088        0.0512548313
 C         -0.1817934354       -2.5370403825        1.1492707758
 C          0.8429915248       -2.7978214508        2.0371964113
 C          2.0944943614       -2.2400880281        1.8456859631
 C          2.3142782130       -1.4199409264        0.7450691022
 N          3.5974284272       -0.8949809531        0.5099509625
 S          3.8273933584        0.5688766681       -0.2923474111
 O          3.1756925442        1.6556012705        0.4029634244
 O          3.4920596191        0.3988637218       -1.6838976503
 C          5.5979545641        0.7119272624       -0.1209508236
 C          6.1244265236        1.5525128369        0.8411464975
 C          7.5011603764        1.6334430159        0.9813997670
 C          8.3237447993        0.8741866561        0.1631170096
 C          7.7809488620        0.0356600524       -0.7993744915
 C          6.4055676363       -0.0485520717       -0.9454600852
 H          5.9390626166       -0.6787771033       -1.6843502650
 H          8.4239874052       -0.5509403629       -1.4354487253
 H          9.3946185919        0.9386131255        0.2743760016
 H          7.9253405115        2.2871595352        1.7264457652
 H          5.4454322579        2.1291608935        1.4488455432
 H          4.1884472833       -0.9425757030        1.3290156789
 H          2.8941901899       -2.4365954147        2.5436653856
 H          0.6664367589       -3.4357488601        2.8903459071
 H         -1.1641321354       -2.9628053243        1.3049869354
 C         -1.1360687550       -1.4324171363       -0.8732267242
 H         -1.5720453276       -2.4029444515       -1.1659545849
 C         -0.7185416636       -0.7389131361       -2.1615128537
 C         -1.6838293180        0.0951788601       -2.9475876319
 C         -0.5315759528        0.7452644293       -2.2450587308
 H          0.2920374498        1.1242722112       -2.8334790079
 H         -0.7245921964        1.3244908927       -1.3548642353
 H         -1.6606697547        0.0289736326       -4.0248410425
 H         -2.6739876103        0.2346066474       -2.5384648527
 H         -0.0265971832       -1.3434522259       -2.7408070341
 O         -3.8494912967       -2.1820639747       -1.0780392587
