  62
        -98.94227335
 C         -1.9785639602       -0.6890987414       -0.2437802399
 C         -3.1290837502       -1.3638982608        0.2310149010
 C         -4.4144946502       -0.8705293716       -0.2748861999
 C         -4.4387032401        0.1507195871       -1.1506553814
 C         -5.6685248201        0.7469956161       -1.7804032324
 C         -6.3658962703        1.8029699673       -0.9118885541
 C         -7.1166277004        1.2536430789        0.3018222666
 H         -7.7319456606        2.0665640295        0.6924567254
 H         -7.7917306303        0.4597467284       -0.0190945923
 C         -6.2087049805        0.7372158707        1.4267051075
 H         -6.5663566207        1.1167872420        2.3865193969
 H         -5.1977651606        1.1268427106        1.2855009971
 C         -6.1416662704       -0.7860071692        1.5381334297
 H         -5.4459481705       -1.0406041779        2.3416731402
 H         -7.1250485204       -1.1771176089        1.8080387502
 C         -5.6688909602       -1.4925756810        0.2607571508
 H         -5.4446104201       -2.5332024206        0.5071606024
 H         -6.4554271701       -1.4730414921       -0.4931767693
 H         -7.0820079803        2.3272143963       -1.5489707449
 H         -5.6205404404        2.5304682578       -0.5818769650
 H         -5.3416458800        1.2245920647       -2.7066284631
 H         -6.3744668700       -0.0460404244       -2.0286967914
 O         -3.3087847101        0.7651529365       -1.5927186222
 C         -2.0551236002        0.3788358873       -1.1374364614
 O         -1.1143189902        1.0515472367       -1.6008614623
 H          1.8522250398       -0.0540313312       -0.3437743803
 C          1.3712614796        0.4162463300        0.4961121790
 C          0.1114340396        0.0026440205        0.8998141194
 C         -0.5026910006        0.6624664620        1.9613200284
 C          0.1214081292        1.7250676329        2.5848416669
 C          1.3741704192        2.1434887624        2.1722997865
 C          2.0033320094        1.4834584910        1.1220976175
 N          3.2909409094        1.8706386705        0.7402105271
 S          4.1573240297        1.4387012787       -0.6113251922
 O          5.0750874496        2.5372603484       -0.8231470236
 O          3.3105801798        1.0909343170       -1.7269477318
 C          5.0996238297        0.0024719795       -0.1175743299
 C          6.3869935298       -0.1157598311       -0.6058186896
 C          7.1371368199       -1.2326256906       -0.2739188079
 C          6.5896440799       -2.2132978594        0.5385589935
 C          5.2980761398       -2.0801443689        1.0236921031
 C          4.5421368397       -0.9647835994        0.6953570314
 H          3.5360592697       -0.8455131190        1.0628697311
 H          4.8718620698       -2.8415986480        1.6571476641
 H          7.1712652299       -3.0843667490        0.7958866448
 H          8.1425653699       -1.3337803110       -0.6498816376
 H          6.7757076998        0.6738049380       -1.2282966307
 H          3.6430564893        2.7144717912        1.1625014259
 H          1.8613184491        2.9760629132        2.6561523953
 H         -0.3701679009        2.2348899441        3.3998881461
 H         -1.4828754806        0.3359854923        2.2817313387
 C         -0.6138568802       -1.1434925505        0.2408817210
 H         -0.8192763602       -1.9060746794        1.0072598120
 C          0.1667794700       -1.7878257721       -0.8850499980
 C          1.2351195600       -2.7922366016       -0.5731001064
 C         -0.0555035398       -3.2370660026       -1.1915489659
 H         -0.0543811497       -3.5502395341       -2.2248258555
 H         -0.7633987699       -3.7705620817       -0.5741420652
 H          1.4038543799       -3.0317726000        0.4658433640
 H          2.1282009501       -2.7991203724       -1.1801139863
 H          0.3248212800       -1.1176873333       -1.7238374689
 O         -3.0828933902       -2.3300374296        1.0385634524
