  62
        -98.93434640
 C         -1.7227325159       -1.1271991879        0.0612356533
 C         -2.1805261169        0.0677833798       -0.5447098482
 C         -3.6425270258        0.1994634283       -0.6998878957
 C         -4.4506507063       -0.7839579466       -0.2716363894
 C         -5.9528066520       -0.8738487913       -0.3700487842
 C         -6.7599063093        0.3848527871       -0.0199688387
 C         -6.1282904094        1.2876797540        1.0497552560
 H         -6.8760262186        1.5069898906        1.8142670568
 H         -5.3036720031        0.7680123382        1.5405479988
 C         -5.6287373535        2.6209627002        0.4874495872
 H         -6.3763418097        3.0088578750       -0.2080284082
 H         -5.5430390250        3.3378690003        1.3076025759
 C         -4.2715135350        2.5735222282       -0.2139228936
 H         -4.0940646700        3.5505512623       -0.6700758234
 H         -3.4772489080        2.4165930210        0.5211809740
 C         -4.1224594202        1.4913994621       -1.2957856138
 H         -5.0473209217        1.3597645410       -1.8524752145
 H         -3.3409534986        1.8158236757       -1.9885221967
 H         -6.9290939161        0.9714353418       -0.9220181603
 H         -7.7392966772        0.0463581829        0.3222618140
 H         -6.2093627938       -1.1924492174       -1.3845253983
 H         -6.2326271826       -1.6873530762        0.3034636426
 O         -3.9669953138       -1.9118386090        0.3216639419
 C         -2.6108350476       -2.1030600699        0.5192383453
 O         -2.3256191736       -3.1627497272        1.1114087450
 O         -1.4243283718        0.9874888203       -0.9491472435
 C         -0.2466520906       -1.3931179639        0.3035264510
 C          0.4289595969       -0.1530793367        0.8335175784
 C          0.0339595731        0.3437419016        2.0734457923
 C          0.6174406426        1.4799171658        2.5982241579
 C          1.6262347642        2.1316263723        1.9099875778
 C          2.0277016176        1.6438108839        0.6729119656
 C          1.4296308164        0.5088691548        0.1412462467
 H          1.7250512612        0.1834399505       -0.8412874689
 N          3.0462359112        2.2793854606       -0.0491683911
 S          4.0976524697        1.3886291930       -0.9867322494
 O          5.2923701836        2.2035372994       -1.0582420375
 O          3.4986128821        1.0483569618       -2.2522661365
 C          4.4303798334       -0.0955448728       -0.0516626875
 C          4.2289075889       -1.3291315844       -0.6357983705
 C          4.4855911719       -2.4731416878        0.1032520008
 C          4.9358402184       -2.3636137405        1.4095163898
 C          5.1402465712       -1.1169169908        1.9808194451
 C          4.8874239029        0.0294697580        1.2454148675
 H          5.0444725761        1.0118401122        1.6597699714
 H          5.4934115341       -1.0356700601        2.9961105977
 H          5.1295216950       -3.2554879837        1.9842741144
 H          4.3295421885       -3.4436991462       -0.3405625464
 H          3.8728141223       -1.3686279545       -1.6531003161
 H          3.5015403309        3.0457962766        0.4226469642
 H          2.0858787314        3.0187289340        2.3182877923
 H          0.2915117772        1.8593495009        3.5550575668
 H         -0.7516932149       -0.1682461258        2.6130811235
 H         -0.2245595811       -2.1535479140        1.1018853754
 C          0.4819538960       -1.9963838957       -0.8876450298
 C         -0.2265184842       -2.8792754649       -1.8696054742
 C          0.2520792075       -1.5234750110       -2.2901250638
 H          1.1007472825       -1.4536144773       -2.9557998440
 H         -0.4762017848       -0.7421338455       -2.4407592898
 H          0.2916282218       -3.7491841788       -2.2440693037
 H         -1.2882081149       -3.0280528840       -1.7353668504
 H          1.4979426745       -2.2814751629       -0.6309394455
