  62
        -98.93456548
 C         -2.5889116532       -1.3557614639       -0.0670792413
 C         -2.4400124057       -0.1368306052       -0.7670386134
 C         -3.6520598675        0.6916542578       -0.9069749951
 C         -4.8132948632        0.2629613328       -0.3775642014
 C         -6.2032151268        0.8643117085       -0.4042312728
 C         -6.4168263108        2.3229079570       -0.8002471813
 C         -5.8415732106        3.3432365418        0.1813999129
 H         -6.4258476797        3.3058635917        1.1042755573
 H         -5.9644846963        4.3391404416       -0.2496833522
 C         -4.3753817950        3.1433152808        0.5577405205
 H         -4.2563529615        2.1939601953        1.0842492224
 H         -4.0986477104        3.9348412253        1.2596383310
 C         -3.3874610033        3.1909642854       -0.6064142231
 H         -2.3791776636        3.1939838353       -0.1820515207
 H         -3.5183634158        4.1218757704       -1.1617090789
 C         -3.4686638105        2.0139030380       -1.5941354357
 H         -2.5133175978        1.9539110209       -2.1237586626
 H         -4.2458080314        2.1736106067       -2.3377264883
 H         -7.4983525708        2.4783612658       -0.8404100994
 H         -6.0360503426        2.5016605886       -1.8013971334
 H         -6.7864951670        0.2329616748       -1.0836463545
 H         -6.6157227264        0.7016470183        0.5965093406
 O         -4.9065645276       -0.9280856648        0.2845141738
 C         -3.8117422334       -1.7520254651        0.4702635117
 O         -4.0514331665       -2.7897117972        1.1200820442
 H          1.2446496288       -1.7855757042       -0.5382208047
 C          0.9686281847       -1.3536234137        0.4108729017
 C         -0.3193964587       -1.5123277072        0.8930669641
 C         -0.6466804211       -0.9362042355        2.1182941728
 C          0.2896671403       -0.2151131530        2.8326205222
 C          1.5756228253       -0.0546398399        2.3453621008
 C          1.9130313459       -0.6253390231        1.1268498389
 N          3.2230606294       -0.4980394326        0.6285972632
 S          4.0069743671        0.9885981369        0.7940941717
 O          4.4708347054        1.1115225903        2.1538072593
 O          3.1665186491        2.0628818890        0.3143532410
 C          5.3955280682        0.7427515164       -0.2954273144
 C          6.5211275979        0.1067607450        0.1927071016
 C          7.5891388663       -0.1138238517       -0.6623203263
 C          7.5138573709        0.3016793078       -1.9834651815
 C          6.3780298171        0.9402156379       -2.4584578994
 C          5.3056746991        1.1629776184       -1.6089311711
 H          4.4065818964        1.6629709765       -1.9329706548
 H          6.3232355070        1.2645730889       -3.4852440466
 H          8.3463786512        0.1294771324       -2.6472292491
 H          8.4749628318       -0.6075669449       -0.2967074841
 H          6.5370149977       -0.1902927235        1.2282020592
 H          3.2941537821       -0.8282666728       -0.3246669713
 H          2.3121039690        0.5154903244        2.8879180837
 H          0.0184579069        0.2309478399        3.7781597768
 H         -1.6532182170       -1.0550809476        2.4975828307
 C         -1.3919821363       -2.2658951177        0.1439352130
 H         -1.7437273179       -3.0850227814        0.7874975076
 C         -0.9341970697       -2.8461406621       -1.1773970512
 C         -0.1867869826       -4.1445704883       -1.2097021607
 C         -1.6034607910       -4.0827069337       -1.6942188058
 H         -1.7916729294       -4.1617533161       -2.7544277492
 H         -2.3772259659       -4.5205572569       -1.0804632102
 H          0.0049863875       -4.6329661367       -0.2663844107
 H          0.5975617860       -4.2718381616       -1.9405188809
 H         -0.6723220358       -2.0823683686       -1.9006852271
 O         -1.3486359137        0.2446466763       -1.2665397359
