  62
        -98.94011741
 C         -1.9935191414       -1.4888134547        0.0361435084
 C         -1.7688650585       -0.2500084092       -0.6066441235
 C         -2.9507217772        0.6090318176       -0.7976343303
 C         -4.1504779319        0.1876479613       -0.3619918618
 C         -5.4889402163        0.8722192774       -0.4855619921
 C         -5.5407435701        2.3837342182       -0.2248355179
 C         -4.5532336146        2.8940811292        0.8346804459
 H         -5.0964952612        3.4974505696        1.5642586287
 H         -4.1124686856        2.0524393293        1.3716546682
 C         -3.4399185708        3.7616019468        0.2431550366
 H         -3.8783159343        4.4395600636       -0.4923825303
 H         -3.0125101026        4.3753405479        1.0396245405
 C         -2.2878069150        2.9960973751       -0.4066202290
 H         -1.6992601228        2.4898372848        0.3637459760
 H         -1.6350318408        3.7261380996       -0.8919927090
 C         -2.6957427486        1.9395654667       -1.4460916266
 H         -3.5492722507        2.2714172197       -2.0323678271
 H         -1.8486926065        1.7872349334       -2.1210001744
 H         -6.5609744403        2.6140939580        0.0868033365
 H         -5.3701405262        2.9203158949       -1.1571002574
 H         -6.1379024704        0.3556422805        0.2257947537
 H         -5.8829031845        0.6679795455       -1.4855057176
 O         -4.3180336392       -1.0133289983        0.2623109697
 C         -3.2577794332       -1.8758467141        0.4769297214
 O         -3.5620132695       -2.9326608869        1.0662295413
 O         -0.6381753385        0.1232834795       -1.0129034547
 C         -0.8387993654       -2.4500488888        0.2534603664
 C          0.2623490158       -1.7685958368        1.0277998339
 C         -0.0503022409       -1.1694768028        2.2464507242
 C          0.9213967432       -0.5338938258        2.9939211745
 C          2.2269066216       -0.4724076267        2.5366410794
 C          2.5503612249       -1.0698744509        1.3257347052
 C          1.5744636577       -1.7244879574        0.5848223328
 H          1.8586441420       -2.1714194277       -0.3525199175
 N          3.8703454189       -1.0375737669        0.8325742883
 S          4.1519047481       -0.2888655601       -0.6414796748
 O          3.4178821898       -0.9603677510       -1.6808222021
 O          5.5925928532       -0.2802980148       -0.7803364797
 C          3.5707341258        1.3808479892       -0.4026377318
 C          4.4977746794        2.3529993344       -0.0768177627
 C          4.0597165054        3.6395969189        0.1891134283
 C          2.7042941012        3.9287927843        0.1365083019
 C          1.7885711962        2.9406345414       -0.1882684370
 C          2.2180952203        1.6504834032       -0.4615972795
 H          1.5139610875        0.8744753914       -0.7184816740
 H          0.7328293107        3.1555045270       -0.2306087664
 H          2.3588298277        4.9284879030        0.3484868280
 H          4.7722957010        4.4091594260        0.4391201453
 H          5.5408854041        2.0815001908       -0.0497091549
 H          4.5430714691       -0.6951392914        1.5052518798
 H          2.9876577190        0.0312318503        3.1138105182
 H          0.6612087983       -0.0756076782        3.9361121397
 H         -1.0730338036       -1.2106349288        2.5973819894
 H         -1.2365105231       -3.2679287369        0.8722417633
 C         -0.3837682564       -3.0234001419       -1.0722918728
 C          0.2543981049       -4.3777240954       -1.1257928503
 C         -1.1328882080       -4.1808882452       -1.6574997108
 H         -1.2863461932       -4.2093397822       -2.7259256169
 H         -1.9619088072       -4.5737380066       -1.0864836591
 H          1.0572807548       -4.5397124469       -1.8294131756
 H          0.3690887098       -4.9135272836       -0.1955405759
 H         -0.0233121523       -2.2650833438       -1.7588202834
