  62
        -98.94284550
 C         -0.7040146441       -1.4016205600        0.5738015133
 C         -1.1807520883       -0.7435922186       -0.5822266100
 C         -2.2210524254        0.2810238579       -0.3705065357
 C         -2.5551139462        0.6292751297        0.8857286465
 C         -3.5352890656        1.6595159335        1.4090322660
 C         -4.5585843250        2.3024286160        0.4763203258
 C         -5.6462247820        1.3516510421       -0.0261181136
 H         -6.3108565720        1.1167146334        0.8091650041
 H         -6.2361289031        1.8740625311       -0.7821056778
 C         -5.1554705581        0.0264117026       -0.6048142761
 H         -4.6209306243       -0.5338743597        0.1650754674
 H         -6.0345603375       -0.5635490639       -0.8782668198
 C         -4.2689919996        0.1391600657       -1.8432459014
 H         -4.7927665872        0.7012389783       -2.6187616206
 H         -4.0989747901       -0.8728521973       -2.2203537942
 C         -2.8950909212        0.7901166240       -1.6118068440
 H         -2.2414889328        0.5161801118       -2.4446323138
 H         -2.9779951364        1.8721659008       -1.5993879667
 H         -5.0517229205        3.0912167520        1.0510373845
 H         -4.0586782127        2.7868878148       -0.3570575287
 H         -4.0629985616        1.1756578844        2.2374364116
 H         -2.9252924937        2.4502808926        1.8604357913
 O         -1.9505360001        0.0655132952        1.9755993534
 C         -1.0705298720       -0.9945630243        1.8539882674
 O         -0.6879157184       -1.4760736385        2.9408240905
 H          1.7460973814       -0.4942069436        1.0951068991
 C          2.1750479748       -1.0350258375        0.2632349711
 C          1.5253455713       -2.1608577032       -0.2283044161
 C          2.1034252542       -2.8568730877       -1.2819409554
 C          3.2982212411       -2.4263170482       -1.8321561566
 C          3.9393599586       -1.3026579919       -1.3452367664
 C          3.3728840628       -0.6048629189       -0.2836009731
 N          4.0119582941        0.5232510428        0.2507218664
 S          3.1398816316        1.7677901382        0.9251270855
 O          4.0637874686        2.8840156989        0.9242145931
 O          2.6264027273        1.3908479802        2.2188069465
 C          1.7993053228        2.1402671362       -0.1908160483
 C          0.5945339158        2.5457086767        0.3445535216
 C         -0.4163520358        2.9568223838       -0.5084412578
 C         -0.2104152457        2.9421965022       -1.8784885469
 C          0.9980892705        2.5136129012       -2.4026729252
 C          2.0184268881        2.1186026640       -1.5535843524
 H          2.9717403168        1.7973945521       -1.9398485837
 H          1.1505841195        2.4912270984       -3.4695363430
 H         -0.9960901556        3.2649543492       -2.5428106499
 H         -1.3560947704        3.2888853213       -0.0977484282
 H          0.4711150657        2.5271667838        1.4166983616
 H          4.8228774789        0.8484523339       -0.2540199348
 H          4.8724403554       -0.9692327090       -1.7727555767
 H          3.7352085096       -2.9729615826       -2.6537329401
 H          1.6187021195       -3.7352653871       -1.6741896432
 C          0.2416004103       -2.5809343106        0.4433618800
 H          0.4888953892       -2.8831933192        1.4722644990
 C         -0.4608254522       -3.7312488209       -0.2486396609
 C         -0.0681506538       -5.1459236055        0.0498293513
 C         -1.3727236836       -4.6078673265        0.5539824834
 H         -2.2875289416       -4.9563421104        0.0985431605
 H         -1.4661598925       -4.3915742139        1.6087780032
 H         -0.0901749245       -5.8687189143       -0.7517296851
 H          0.7238509825       -5.3043977890        0.7661987193
 H         -0.7673853400       -3.4849762602       -1.2585775979
 O         -0.7759455833       -1.0075362829       -1.7433111535
