  62
        -98.94109036
 C         -1.1041360415       -1.2447987894       -0.2165958303
 C         -2.0002639612       -0.9167454990        0.8328707498
 C         -2.8886340004        0.2391779317        0.6253854200
 C         -2.8157640498        0.9225094419       -0.5316928198
 C         -3.5819529789        2.1302949626       -1.0307155396
 C         -4.8237413285        2.6257689534       -0.2941960195
 C         -6.0316914192        1.6930605343       -0.3812687097
 H         -6.8175244690        2.0885401448        0.2659819903
 H         -6.4082254092        1.7086801648       -1.4072782297
 C         -5.7691860803        0.2354027340       -0.0109517801
 H         -6.7054565008       -0.3150789752       -0.1375575802
 H         -5.0468914306       -0.1963321363       -0.7068009201
 C         -5.2830211306        0.0013142733        1.4177817499
 H         -5.2824149914       -1.0779385667        1.5928286597
 H         -5.9831958002        0.4530656637        2.1232804000
 C         -3.8690311602        0.5212158922        1.7273839601
 H         -3.8843775194        1.5810991722        1.9694075603
 H         -3.5005071406       -0.0117347083        2.6085344600
 H         -4.5860795884        2.8467995130        0.7421510406
 H         -5.1065412378        3.5728530337       -0.7617695993
 H         -2.8572127983        2.9501582121       -1.0735967394
 H         -3.8495763990        1.9049987531       -2.0680804496
 O         -1.9098378400        0.5954682615       -1.4962193599
 C         -1.0394261208       -0.4732434192       -1.3750164601
 O         -0.2867228409       -0.6068694796       -2.3616641801
 H          1.6167755387       -1.0610992612       -1.3891272301
 C          1.9787072185       -1.3431127217       -0.4115345602
 C          1.1578669979       -2.0781241013        0.4321279096
 C          1.6322090776       -2.4084275219        1.6960458296
 C          2.8957097379       -2.0144834630        2.1028590397
 C          3.7070342085       -1.2728940734        1.2622016399
 C          3.2359794388       -0.9321493927        0.0016630700
 N          4.0298134294       -0.1136243931       -0.8395377998
 S          4.1395362406        1.4683240566       -0.2930451095
 O          4.6110713612        2.2480916765       -1.4143890093
 O          4.9644057206        1.4894646858        0.8878939506
 C          2.4664380109        1.9253128578        0.1277115806
 C          1.9970792307        1.6687995279        1.4005218905
 C          0.6764112509        1.9615027988        1.6978204505
 C         -0.1457218787        2.5095017596        0.7258212406
 C          0.3403529516        2.7598942196       -0.5477666293
 C          1.6564825514        2.4566460386       -0.8548359693
 H          2.0687790515        2.6345010286       -1.8353189693
 H         -0.3016451081        3.1769604302       -1.3073634692
 H         -1.1729152285        2.7366322004        0.9646669106
 H          0.2890010807        1.7569097989        2.6829676205
 H          2.6687749704        1.2527116772        2.1332694104
 H          3.6860361395       -0.1003303527       -1.7908682698
 H          4.6818887387       -0.9303690642        1.5692738600
 H          3.2498637977       -2.2809262535        3.0869985197
 H          0.9953080472       -2.9638494016        2.3687533794
 C         -0.2308223624       -2.4716817901       -0.0076020205
 H         -0.7003775628       -3.0191132500        0.8204133094
 C         -0.1827596130       -3.3829214699       -1.2186925507
 C          0.1961387859       -4.8204703202       -1.0329083210
 C         -1.2173989838       -4.4553264791       -1.3717349610
 H         -1.5872019440       -4.6765230786       -2.3617514710
 H         -1.9660144139       -4.5424670487       -0.5977521710
 H          0.8009637255       -5.2954216205       -1.7900047711
 H          0.4049866056       -5.1571198306       -0.0288524911
 H          0.1519774474       -2.8867561399       -2.1203010106
 O         -2.0619871818       -1.5729533592        1.9058740996
