  62
        -98.94219094
 C         -2.5372771325       -0.4664953433       -0.4985821975
 C         -1.5009125217        0.3337367237       -1.0381481371
 C         -1.6443710664        1.7847954075       -0.8566336485
 C         -2.7321253902        2.2705313882       -0.2329028976
 C         -2.9724833967        3.7196226901        0.0725715321
 C         -2.4269903075        4.0934404151        1.4581099111
 C         -0.9924114688        3.6275630372        1.7114862774
 H         -0.9638580015        2.5352729587        1.7461409326
 H         -0.7075463397        3.9807059252        2.7052650520
 C          0.0326754598        4.1229515500        0.6819271428
 H          0.9214963632        4.4670863783        1.2147923791
 H         -0.3721798440        4.9764049689        0.1358767773
 C          0.4965660986        3.0540342491       -0.3095086387
 H          0.8044508797        2.1609964763        0.2426716087
 H          1.3788106307        3.4346114741       -0.8320842821
 C         -0.5337314081        2.6545282999       -1.3742768189
 H         -0.0174488528        2.0635702648       -2.1357317210
 H         -0.9354717690        3.5513025583       -1.8502041552
 H         -3.0697544186        3.6415663377        2.2172366199
 H         -2.4818515222        5.1780392007        1.5687998213
 H         -2.4981882423        4.3310057599       -0.6925088905
 H         -4.0485162562        3.9009684630        0.0558935082
 O         -3.7284618062        1.4761691413        0.2356640285
 C         -3.6388108178        0.0982664652        0.1516462313
 O         -4.5950065868       -0.5095832548        0.6725944532
 H          0.2312010896       -2.2380170245       -0.9224410608
 C         -0.0279474108       -2.3192424457        0.1210213349
 C         -1.3604120298       -2.3052656063        0.5049417743
 C         -1.6637994922       -2.4068013637        1.8596653810
 C         -0.6587072021       -2.4841235813        2.8068462756
 C          0.6697248903       -2.4198591861        2.4237258099
 C          0.9780356262       -2.3272626785        1.0746767006
 N          2.3287491011       -2.1478614771        0.6987736327
 S          2.9256844828       -0.6290659483        1.1760522012
 O          3.9610854845       -0.8536119340        2.1595375688
 O          1.8340082390        0.2107822148        1.6106722685
 C          3.6539915725        0.0278063810       -0.3147848332
 C          5.0223551938        0.2040676245       -0.3850641829
 C          5.5726933796        0.7230105482       -1.5463220873
 C          4.7490491478        1.0549495064       -2.6112634648
 C          3.3774885205        0.8691936113       -2.5248460061
 C          2.8178864803        0.3492354537       -1.3678374932
 H          1.7513684011        0.1992180581       -1.2785439800
 H          2.7344404454        1.1245148365       -3.3521338897
 H          5.1764628055        1.4611441691       -3.5144432843
 H          6.6387471432        0.8674384849       -1.6161846734
 H          5.6195600801       -0.0667515887        0.4702418006
 H          2.4498858966       -2.2502711913       -0.3007223332
 H          1.4693284372       -2.4043402440        3.1483426867
 H         -0.9117577650       -2.5593463216        3.8540385966
 H         -2.7007032624       -2.3834298163        2.1661713725
 C         -2.4535494786       -1.9882496459       -0.4859586899
 H         -3.4087707069       -2.3442679300       -0.0800331927
 C         -2.2505730909       -2.5862549466       -1.8608694884
 C         -2.4556637591       -4.0586409225       -2.0497564790
 C         -3.4402545795       -3.0851573524       -2.6224425286
 H         -3.4627120811       -2.9420597116       -3.6923002328
 H         -4.4083291123       -2.9987225510       -2.1508514582
 H         -2.7550636704       -4.6335912373       -1.1864101136
 H         -1.8030737508       -4.5884810340       -2.7264792573
 H         -1.4683522379       -2.1056750256       -2.4333192852
 O         -0.4982341269       -0.1205191561       -1.6502015757
