  62
        -98.94111338
 C          1.9845782338        0.9157437951       -0.1966540027
 C          2.3896734978        0.1813401560        0.9476630771
 C          2.5582026433       -1.2655357383        0.7782125039
 C          2.2812137751       -1.8183323292       -0.4161936969
 C          2.4255758999       -3.2763945525       -0.7426774941
 C          3.8215351825       -3.5899255524       -1.2990805007
 C          4.9624995952       -3.0184645161       -0.4574068540
 H          5.8989529752       -3.3250717543       -0.9281140208
 H          4.9218845048       -1.9277206328       -0.4997307300
 C          4.9551629856       -3.4687399495        1.0100605259
 H          5.9710311760       -3.7497257136        1.2952635969
 H          4.3293348513       -4.3546687169        1.1221564699
 C          4.4950974969       -2.3965718694        1.9995425758
 H          5.0544541738       -1.4739163963        1.8264877897
 H          4.7339961235       -2.7405234953        3.0093054055
 C          2.9980633915       -2.0622847619        1.9743419572
 H          2.4121047937       -2.9801226680        2.0587331054
 H          2.7801194269       -1.4361614284        2.8445633165
 H          3.9276126211       -4.6737076425       -1.3734593547
 H          3.8937428945       -3.1705687444       -2.3052244909
 H          2.2390224061       -3.8612489966        0.1562047762
 H          1.6746188565       -3.5328600197       -1.4923350211
 O          1.8795855877       -1.0918802239       -1.4877786967
 C          1.7086594539        0.2849381239       -1.4104979759
 O          1.3291830901        0.7938537119       -2.4840713196
 O          2.6065272037        0.7230261629        2.0665949811
 C          1.7523612589        2.4005839697        0.0165373040
 C          0.3390557375        2.6436702572        0.4981061336
 C          0.0746856421        3.5834023721        1.4883071789
 C         -1.2139131316        3.7728491126        1.9539979666
 C         -2.2579808563        3.0082295267        1.4653796519
 C         -2.0043949524        2.0710811663        0.4706442657
 C         -0.7186479346        1.9162893951       -0.0251950797
 H         -0.5495888321        1.1913594543       -0.8073612845
 N         -3.0280001320        1.2628061367       -0.0491979967
 S         -2.6376478903       -0.3479817777       -0.3951111117
 O         -1.6853968666       -0.8461892531        0.5718144351
 O         -2.2666404196       -0.4498121360       -1.7840595169
 C         -4.2252358724       -1.1250483868       -0.1480774235
 C         -4.5155248013       -1.6851232967        1.0817277249
 C         -5.7616881998       -2.2587505405        1.2801747910
 C         -6.6928211282       -2.2589779282        0.2524025645
 C         -6.3872024002       -1.6927753821       -0.9763829118
 C         -5.1425104332       -1.1188332463       -1.1819816412
 H         -4.8545837077       -0.6761907142       -2.1213485981
 H         -7.1121951681       -1.6971689076       -1.7741161676
 H         -7.6616994006       -2.7058800575        0.4092883060
 H         -6.0001085174       -2.7023683263        2.2333580188
 H         -3.7558063212       -1.6688062191        1.8468423855
 H         -3.8928098429        1.3357278727        0.4697298373
 H         -3.2587211146        3.1310364563        1.8505689713
 H         -1.4041473026        4.5049800031        2.7238463567
 H          0.8907155467        4.1521132587        1.9079719605
 H          2.4294497995        2.6900385379        0.8333237309
 C          2.0542993543        3.2721620728       -1.1857872343
 C          2.4865335534        4.6916279806       -0.9769028810
 C          3.4701164182        3.6731034238       -1.4675659875
 H          3.7954717803        3.7136535135       -2.4958926721
 H          4.2307314579        3.3269339395       -0.7828350638
 H          2.1340058857        5.4409780813       -1.6685198370
 H          2.5903560197        5.0426678819        0.0382605604
 H          1.4213415358        3.0567588519       -2.0369523674
