  62
        -98.93268430
 C          1.9220764798        0.6347947110        0.9291437281
 C          2.8057044936        1.0679580699       -0.0894555416
 C          4.1875471312        0.5670793003        0.0063562902
 C          4.5407945603       -0.2500474996        1.0132962644
 C          5.9123210714       -0.8099024307        1.2837837671
 C          6.4682110505       -1.7902231600        0.2328964062
 C          7.3513403866       -1.1364981623       -0.8371559226
 H          7.7691487196       -0.2140335737       -0.4318995095
 H          8.1954273352       -1.7969227060       -1.0463568701
 C          6.6701178917       -0.8440232248       -2.1775495547
 H          6.5913216974       -1.7728376356       -2.7472891759
 H          7.3172271731       -0.1677597509       -2.7403872543
 C          5.2694456977       -0.2367729556       -2.0968862618
 H          4.5499657543       -1.0102794601       -1.8172536315
 H          4.9863646227        0.1001571056       -3.0960836005
 C          5.1313792087        0.9324602267       -1.1024429368
 H          6.1038280559        1.2141686023       -0.7016663964
 H          4.7007454053        1.8000140091       -1.6063035915
 H          5.6443145043       -2.3324725698       -0.2305948321
 H          7.0726113664       -2.5215189079        0.7720928610
 H          5.8307195369       -1.3254473244        2.2429498101
 H          6.6114401836        0.0200286156        1.4098713337
 O          3.6575799466       -0.6477141140        1.9705845574
 C          2.3392483647       -0.2320723514        1.9429433202
 O          1.6404801716       -0.6851890922        2.8729470084
 O          2.4840960193        1.8360353318       -1.0308203683
 C          0.4599778123        1.0464113679        0.9942384542
 C         -0.3786798272        0.1056140212        0.1690603185
 C         -0.1229981310       -0.0871040623       -1.1854681285
 C         -0.9037599046       -0.9515379467       -1.9307077769
 C         -1.9539812337       -1.6376580776       -1.3449185491
 C         -2.2151030523       -1.4532131869        0.0055515027
 C         -1.4307268195       -0.5840928999        0.7527659415
 H         -1.6307093046       -0.4549415870        1.8080406609
 N         -3.3057084484       -2.1280886573        0.5950559846
 S         -4.8080415909       -1.7315294433       -0.0412875671
 O         -5.7707380846       -2.1057874389        0.9692975623
 O         -4.9573103918       -2.3592631852       -1.3289209050
 C         -4.7352220200        0.0409215711       -0.2212347959
 C         -4.3691353817        0.5891231625       -1.4339785660
 C         -4.2068897058        1.9623266342       -1.5251846957
 C         -4.4111929876        2.7587547788       -0.4094284423
 C         -4.7870356944        2.1933366337        0.7996754375
 C         -4.9441854898        0.8205427216        0.8992560814
 H         -5.2359119832        0.3425987661        1.8210346417
 H         -4.9481876779        2.8164252201        1.6648858645
 H         -4.2724600460        3.8255942090       -0.4810190532
 H         -3.9147724308        2.4056862165       -2.4634266448
 H         -4.2217189906       -0.0635913663       -2.2784467899
 H         -3.3281956798       -2.0407825276        1.6014516378
 H         -2.5797176480       -2.3072047433       -1.9129101452
 H         -0.6937703762       -1.0927602976       -2.9801612405
 H          0.6913782885        0.4530168846       -1.6438692895
 H          0.1745861978        0.9056402428        2.0483535928
 C          0.2297072401        2.5132104015        0.6508620746
 C         -0.6356456645        2.9745626245       -0.4804961864
 C         -1.1084036990        3.1315268190        0.9308630093
 H         -1.1426663783        4.1191102291        1.3647257474
 H         -1.8953732689        2.4719660494        1.2658803457
 H         -0.3162635985        3.8507809381       -1.0234068021
 H         -1.1181178465        2.2313620662       -1.0954359518
 H          1.1001738812        3.1229762980        0.8661482117
