  62
        -98.94091137
 C         -1.5779626509       -0.0643621400       -0.8054834936
 C         -2.8742177270       -0.1433338514       -1.3762795261
 C         -3.9642448608        0.4713011483       -0.6076607689
 C         -3.6877460459        1.0465645218        0.5764357590
 C         -4.7079035531        1.6577559832        1.4918390004
 C         -5.2418578261        0.6259225404        2.4952542780
 C         -5.6789771951       -0.6911925457        1.8540799053
 H         -4.8027448915       -1.1926514158        1.4365382100
 H         -6.0637700385       -1.3297833460        2.6522333437
 C         -6.7457549969       -0.5417324917        0.7603440146
 H         -7.5128852306       -1.3039301846        0.9128273891
 H         -7.2333724933        0.4299087532        0.8481103264
 C         -6.2210555410       -0.7178836692       -0.6658992851
 H         -5.6528220115       -1.6490242519       -0.7353309819
 H         -7.0804196908       -0.8095072638       -1.3355784464
 C         -5.3444632232        0.4218725235       -1.2000995002
 H         -5.2054646621        0.2578905611       -2.2728242556
 H         -5.8574951512        1.3759775068       -1.0623361718
 H         -4.4541245110        0.4080210732        3.2200495430
 H         -6.0836845074        1.0686313253        3.0307573109
 H         -4.2336762272        2.4729587557        2.0407121271
 H         -5.5264465335        2.0600773700        0.8981275063
 O         -2.4386921849        1.0892082914        1.1010754710
 C         -1.3513004070        0.5265930678        0.4393885582
 O         -0.2811863142        0.6292673174        1.0634775575
 O         -3.1098519851       -0.7075199864       -2.4784708103
 C         -0.4371127834       -0.7103076331       -1.5722903759
 C          0.3685182862       -1.5873730244       -0.6496607658
 C         -0.2183206148       -2.7377105217       -0.1287729021
 C          0.4760586951       -3.5474099215        0.7487888430
 C          1.7685719754       -3.2269032286        1.1253627905
 C          2.3605034835       -2.0772353651        0.6155843917
 C          1.6630389653       -1.2709494630       -0.2731232901
 H          2.1326002017       -0.3807602012       -0.6544532060
 N          3.6442805665       -1.7029695706        1.0197822504
 S          4.6193839624       -0.6807514755        0.1481096930
 O          4.5917299649       -0.9894817382       -1.2638229515
 O          5.9153121520       -0.7967713499        0.7841981328
 C          3.9843947367        0.9613415041        0.4213403855
 C          3.2520066253        1.2494656346        1.5544818695
 C          2.8033852521        2.5461829950        1.7472676604
 C          3.0999637551        3.5290327999        0.8164446738
 C          3.8430234430        3.2253912096       -0.3138462968
 C          4.2891085347        1.9294360280       -0.5157189651
 H          4.8569137614        1.6460769465       -1.3880482737
 H          4.0703269892        3.9909371157       -1.0387179785
 H          2.7460959667        4.5364862279        0.9697277878
 H          2.2141397244        2.7796539236        2.6192423703
 H          3.0185088620        0.4668824594        2.2565675828
 H          4.1420021477       -2.3412461906        1.6194947130
 H          2.3109499073       -3.8538957317        1.8164512365
 H          0.0091535247       -4.4365859554        1.1453164079
 H         -1.2319436339       -2.9833897881       -0.4158634425
 H         -0.9375380278       -1.3602575074       -2.3096638179
 C          0.4187584247        0.2641947014       -2.3668702914
 C         -0.1837820803        1.4922804185       -2.9790876463
 C          0.7959269573        1.6202807099       -1.8532201846
 H          1.7876903794        1.9879152029       -2.0738375266
 H          0.4352385887        1.9093474283       -0.8789190261
 H          0.1290818371        1.7788091367       -3.9717991580
 H         -1.2260738772        1.6894097998       -2.7744166596
 H          1.1695295282       -0.2522370405       -2.9588574002
