  62
        -98.93693370
 C          2.0161205520        0.8427664467        0.5000035258
 C          2.7217334312       -0.2194602671        1.1204362224
 C          4.1649715732       -0.3182736221        0.8449382643
 C          4.7360161269        0.5965068026        0.0427389122
 C          6.1695251201        0.6606976870       -0.4068932604
 C          6.3506848257       -0.0594753025       -1.7538565758
 C          6.6290886544       -1.5584027272       -1.6503275220
 H          6.6098521671       -1.9635796843       -2.6646482995
 H          7.6361304664       -1.7100950536       -1.2561316169
 C          5.6422658235       -2.3488442419       -0.7871176574
 H          4.6228534715       -2.0186349443       -0.9958684585
 H          5.7070128070       -3.3986883863       -1.0798171203
 C          5.9298953075       -2.2343298499        0.7173444110
 H          6.9137697184       -1.7878348058        0.8600005734
 H          5.9779555770       -3.2342888264        1.1537883179
 C          4.8851760942       -1.4507908787        1.5247877908
 H          5.3540111088       -1.0673271411        2.4375470990
 H          4.0899007016       -2.1305002867        1.8472507214
 H          7.1829765260        0.4023460112       -2.2887986259
 H          5.4478466468        0.1071070051       -2.3469256634
 H          6.4041437269        1.7183259594       -0.5439094494
 H          6.8305386659        0.2508448455        0.3508838902
 O          4.0260120088        1.6037707409       -0.5304519115
 C          2.6638868189        1.7566537668       -0.3315595975
 O          2.1804837167        2.7273219901       -0.9456785554
 O          2.1645087906       -1.0563495156        1.8826496424
 C          0.5327920726        0.9433519537        0.8082379734
 C         -0.3287853303        0.3418484612       -0.2766882099
 C         -0.2491718758        0.7719612858       -1.5976258674
 C         -1.0637702948        0.2141720420       -2.5656806056
 C         -1.9891653851       -0.7605376775       -2.2339877743
 C         -2.0832549545       -1.1904243266       -0.9165658374
 C         -1.2464263409       -0.6463910849        0.0489925964
 H         -1.3248434835       -1.0013042843        1.0654598536
 N         -3.0250808550       -2.1674148144       -0.5373268217
 S         -4.1496213921       -1.7562551619        0.6343809155
 O         -3.4837906698       -1.4942389918        1.8835076093
 O         -5.1107508491       -2.8357051208        0.6279683860
 C         -4.9075698815       -0.2663004969        0.0099062521
 C         -6.0848064072       -0.3673572569       -0.7056919859
 C         -6.6386358330        0.7789406735       -1.2523485003
 C         -6.0015019956        1.9993344257       -1.0859354835
 C         -4.8182248642        2.0833056665       -0.3683362813
 C         -4.2626804544        0.9418481612        0.1878965355
 H         -3.3453292893        0.9754014938        0.7523698838
 H         -4.3200679883        3.0309634659       -0.2409375998
 H         -6.4289426878        2.8911370943       -1.5164016933
 H         -7.5604414165        0.7169893328       -1.8079830719
 H         -6.5462792618       -1.3363391720       -0.8075713494
 H         -3.4977798057       -2.5997423425       -1.3191178693
 H         -2.6304708331       -1.1887174634       -2.9895915562
 H         -0.9855348228        0.5506378585       -3.5883040789
 H          0.4598743369        1.5430394805       -1.8564336182
 H          0.3895146094        0.3376386290        1.7138822142
 C          0.0706611835        2.3574673100        1.1057211827
 C         -1.1223721723        2.5588467530        1.9894080864
 C          0.2478239762        2.9096927266        2.4863694376
 H          0.5101197703        3.9512845706        2.5941550269
 H          0.7012250329        2.2667693532        3.2270991292
 H         -1.8053680784        3.3625618578        1.7608527823
 H         -1.5963474515        1.6801129570        2.4034146940
 H          0.2089417043        3.0382093484        0.2758919523
