  62
        -98.94398702
 C         -1.6743805850       -1.4669248356       -0.2702622723
 C         -2.7040263344       -0.7862715078        0.4187654701
 C         -3.0727482293        0.5333432060       -0.1101396842
 C         -2.4498061109        1.0003907240       -1.2071604867
 C         -2.6433365082        2.3633153188       -1.8083744689
 C         -1.8163313060        3.3981721819       -1.0178943576
 C         -2.6503716138        4.4260865287       -0.2503250212
 H         -1.9786435709        4.9272229391        0.4502173887
 H         -3.0193877016        5.1784555980       -0.9513671853
 C         -3.8555900592        3.8789652440        0.5207227179
 H         -4.1770228763        4.6659468468        1.2063851972
 H         -4.6843947679        3.7081018287       -0.1681761312
 C         -3.6104129861        2.5952926330        1.3244478285
 H         -2.5485906597        2.4829506015        1.5517402169
 H         -4.1334319675        2.6826513696        2.2792642652
 C         -4.1167006870        1.3098981887        0.6413992933
 H         -4.4851825196        0.6232584828        1.4092195538
 H         -4.9543988128        1.5469090826       -0.0200108672
 H         -1.1599988832        3.9384620952       -1.7027119487
 H         -1.1640262881        2.8603532879       -0.3250296975
 H         -2.2984393342        2.3154022175       -2.8416978543
 H         -3.6986420634        2.6264490555       -1.8024479750
 O         -1.4934997088        0.2990725257       -1.8665556813
 C         -1.0428886199       -0.9185595044       -1.3845197542
 O         -0.0965753960       -1.4083198625       -2.0324761009
 H         -0.1044371631       -0.6687875377        1.5538269563
 C          0.6616830635       -1.3892210890        1.3072825873
 C          0.3164360233       -2.5699190759        0.6612531994
 C          1.3221540910       -3.4841140460        0.3756081947
 C          2.6387422580       -3.2019637207        0.7001108342
 C          2.9834701317       -1.9987779939        1.2886180645
 C          1.9815445951       -1.0836143589        1.5900106361
 N          2.2684276386        0.1746749268        2.1618418053
 S          1.9082672126        1.5193656932        1.2248752574
 O          2.3513823464        2.6527461883        2.0083398393
 O          0.5177094172        1.5076288904        0.8532282282
 C          2.9618864058        1.3422299126       -0.2032252603
 C          4.1697075067        2.0142408251       -0.2167534687
 C          5.0346388595        1.8216807477       -1.2812503947
 C          4.6838103214        0.9542207531       -2.3052291521
 C          3.4705084860        0.2848213098       -2.2743343501
 C          2.5969763699        0.4761745373       -1.2142059483
 H          1.6469825136       -0.0340389079       -1.1774474911
 H          3.1869761906       -0.3918596915       -3.0645279735
 H          5.3579073509        0.7988063055       -3.1327497981
 H          5.9774856312        2.3438140580       -1.3078673863
 H          4.3972845459        2.6792018179        0.6008519180
 H          3.2163735418        0.2590254667        2.5039233378
 H          4.0139850776       -1.7662249667        1.5113101467
 H          3.4100757141       -3.9208391392        0.4698525207
 H          1.0768052153       -4.4140942767       -0.1106582510
 C         -1.1347540444       -2.7691744508        0.2946007888
 H         -1.7063119904       -2.9502079123        1.2172419409
 C         -1.3668442092       -3.9197739200       -0.6610142114
 C         -1.5420876625       -5.3134798310       -0.1378552828
 C         -2.7165574826       -4.5694787927       -0.6962848812
 H         -3.1172734157       -4.8743196786       -1.6512668091
 H         -3.4626141753       -4.1968634646       -0.0094887021
 H         -1.1386105944       -6.1340647841       -0.7116393103
 H         -1.4962000407       -5.4560092121        0.9312424667
 H         -0.8510395420       -3.7854011377       -1.6050061607
 O         -3.2774306610       -1.2569695043        1.4401739643
