  62
        -98.94647277
 C          2.3001323551        0.6127018581       -0.0756644472
 C          1.4039322259        0.8358900612        0.9925935907
 C          0.6569646787        2.1051563615        0.9719314675
 C          0.8314884598        2.9449749995       -0.0630080817
 C          0.1074678814        4.2373060905       -0.3222514161
 C         -1.1357132720        3.9941371048       -1.1965890664
 C         -2.4137431269        3.6850309372       -0.4195286981
 H         -2.7346387789        4.5783156810        0.1214418363
 H         -3.1868305482        3.4445161073       -1.1531664180
 C         -2.2949681720        2.5175138865        0.5631867337
 H         -1.7294942546        1.7132405941        0.0892039993
 H         -3.2992838973        2.1319667687        0.7535530329
 C         -1.6508258906        2.9136161544        1.8994756710
 H         -2.2820469919        2.5631311968        2.7184286449
 H         -1.6247643117        4.0011559940        1.9704661620
 C         -0.2459415633        2.3477526310        2.1510540281
 H          0.2784608386        3.0027782109        2.8553456511
 H         -0.3314443343        1.3707387491        2.6357583874
 H         -0.9188609721        3.1617240407       -1.8723321571
 H         -1.3141316817        4.8796104902       -1.8106873397
 H          0.8007078014        4.8789268179       -0.8702937475
 H         -0.1590788984        4.7246636204        0.6112815880
 O          1.6959030460        2.6853280461       -1.0829335323
 C          2.4362471634        1.5193953615       -1.1247015569
 O          3.1741877249        1.4070027397       -2.1264100945
 O          1.2226564105        0.0029074526        1.9213287425
 C          3.0608128135       -0.7000091084       -0.1533931257
 C          2.0653758753       -1.8361560275       -0.1625127023
 C          2.1844159382       -2.9818345133        0.6133308987
 C          1.1969653680       -3.9522397494        0.5816738807
 C          0.0665932029       -3.7922188404       -0.1992026634
 C         -0.0540921945       -2.6553923339       -0.9908825060
 C          0.9579757628       -1.7098701639       -0.9916107314
 H          0.8582613620       -0.8340816606       -1.6159409552
 N         -1.1874756372       -2.4383837198       -1.7989453479
 S         -2.0701023221       -1.0272430381       -1.6115572146
 O         -3.1521985530       -1.1417703084       -2.5655975144
 O         -1.2110230171        0.1192745076       -1.7569583145
 C         -2.7419232140       -1.1087116764        0.0399215230
 C         -4.0947232809       -1.3428669006        0.1945439952
 C         -4.6207944337       -1.4297013287        1.4732318647
 C         -3.7869829511       -1.2896276764        2.5724311383
 C         -2.4307070071       -1.0622904793        2.3997978597
 C         -1.8977936488       -0.9699163167        1.1234354304
 H         -0.8455121846       -0.7867839146        0.9737159074
 H         -1.7722538040       -0.9541802654        3.2470576354
 H         -4.1945779252       -1.3568435139        3.5688066182
 H         -5.6758657568       -1.6060839452        1.6078192092
 H         -4.7028870004       -1.4430833383       -0.6898762009
 H         -1.8208820558       -3.2249819632       -1.8371131591
 H         -0.7160123993       -4.5358076280       -0.1984930448
 H          1.2997337248       -4.8369068153        1.1913763008
 H          3.0441886401       -3.1105942110        1.2501878864
 H          3.5872105707       -0.6918024654       -1.1192939895
 C          4.0794822040       -0.7956956601        0.9626805245
 C          5.3372322323       -1.5874106787        0.7717228835
 C          5.3916221032       -0.0903206113        0.8052584503
 H          5.8241849371        0.3933609055        1.6681033032
 H          5.5599050009        0.4394515346       -0.1214569985
 H          5.7380628494       -2.1310022233        1.6138965790
 H          5.4809815451       -2.0767746286       -0.1798038997
 H          3.6214064508       -0.7866039631        1.9448196728
