  62
        -98.93906410
 C         -1.9300046290       -0.6198758835       -0.1089472458
 C         -2.9768328692       -0.6806260565        0.8471206192
 C         -4.1221041505        0.2246436716        0.6548284665
 C         -4.1319512332        1.0546488124       -0.4044466640
 C         -5.1220899892        2.1163457647       -0.8353975374
 C         -6.5110960385        2.1889553260       -0.2072410108
 C         -7.4298632930        1.0178099438       -0.5539741718
 H         -8.3478018235        1.1190577682        0.0290201615
 H         -7.6979551614        1.0887190142       -1.6111938089
 C         -6.8427013266       -0.3718510191       -0.3203373550
 H         -5.9753937520       -0.5170239587       -0.9675578595
 H         -7.5945378413       -1.1067568556       -0.6205539074
 C         -6.4432915710       -0.6793167273        1.1214196785
 H         -7.2932181018       -0.5034311807        1.7836480853
 H         -6.1930378315       -1.7422888526        1.1739265097
 C         -5.2343770132        0.1071805005        1.6568625625
 H         -5.5302554450        1.0893804340        2.0179919720
 H         -4.8230682580       -0.4438332404        2.5076018505
 H         -6.4311433134        2.3067055680        0.8694662061
 H         -6.9787631779        3.0999327169       -0.5907359161
 H         -5.2244779453        2.0067744358       -1.9198245073
 H         -4.6169750423        3.0746507987       -0.6701302293
 O         -3.1052703818        1.0766045495       -1.3013280714
 C         -1.9932482767        0.2585651972       -1.1884902799
 O         -1.1660123580        0.4282931965       -2.1082508781
 O         -2.9536541908       -1.4645561742        1.8330526590
 C         -0.7529241366       -1.5557195796        0.1099928521
 C          0.4160213951       -0.8360099458        0.7402523667
 C          0.9204243190       -1.2336581113        1.9727370243
 C          1.9965181298       -0.5737164908        2.5412541458
 C          2.5897365982        0.4951671243        1.8944487654
 C          2.0927027893        0.8988814798        0.6613632281
 C          1.0222237294        0.2283438747        0.0879274560
 H          0.6404334603        0.5495919562       -0.8695880703
 N          2.6852472949        1.9834736844       -0.0074658858
 S          4.3550130599        2.0153404300       -0.1018058900
 O          4.8967283820        2.5592135095        1.1192904011
 O          4.6593966382        2.7531162806       -1.3076962189
 C          4.8433913574        0.3070213321       -0.2669945983
 C          5.6732673198       -0.2667095817        0.6743151729
 C          6.0105735305       -1.6044909631        0.5440394496
 C          5.5098988700       -2.3422288287       -0.5170313330
 C          4.6794101527       -1.7501767349       -1.4563967921
 C          4.3408092317       -0.4128468084       -1.3329169149
 H          3.6983120571        0.0755968118       -2.0483426230
 H          4.2902779415       -2.3248285350       -2.2814794079
 H          5.7672611613       -3.3850199195       -0.6144826363
 H          6.6576437549       -2.0669487347        1.2717656697
 H          6.0349292028        0.3431629754        1.4860472659
 H          2.2590566704        2.1890292789       -0.8991872443
 H          3.4192384522        1.0303412775        2.3277332825
 H          2.3752396852       -0.8918416528        3.5003751195
 H          0.4532792117       -2.0567611766        2.4930391598
 H         -1.1124417496       -2.3017387428        0.8310327861
 C         -0.3170832585       -2.2784109485       -1.1505451090
 C          0.4508153946       -3.5587435332       -1.0269870700
 C         -0.9674572523       -3.5788917225       -1.5110449774
 H         -1.1580679366       -3.7874489577       -2.5531705550
 H         -1.7296877414       -3.9575354838       -0.8455890900
 H          1.2378366795       -3.7569646510       -1.7377541441
 H          0.6519043433       -3.9275401348       -0.0329000303
 H         -0.0601377688       -1.6102073942       -1.9619773936
