  62
        -98.94320179
 C         -1.5228501458       -1.8062218237        0.3174773698
 C         -0.3780151116       -1.6058416095        1.1284370670
 C          0.8223586973       -2.3636476155        0.7390299498
 C          0.8090417981       -3.1041420001       -0.3821542861
 C          1.9871061156       -3.8590389517       -0.9257558300
 C          2.8079512113       -3.0020145938       -1.8991845770
 C          3.1651894190       -1.6130589686       -1.3673019713
 H          3.7852773197       -1.1300057470       -2.1269063875
 H          2.2543125755       -1.0147427207       -1.2829958366
 C          3.9104738880       -1.6137758983       -0.0254264251
 H          4.7297849155       -0.8943930161       -0.0838349695
 H          4.3507261434       -2.5960886221        0.1518739542
 C          3.0538475973       -1.2134723136        1.1762098204
 H          2.5234849374       -0.2862758738        0.9489886738
 H          3.7202744802       -1.0147607320        2.0195608774
 C          2.0227143557       -2.2497502303        1.6362682206
 H          2.5029123878       -3.2225158701        1.7605297242
 H          1.6399201814       -1.9249122690        2.6081069355
 H          3.7229214121       -3.5452871702       -2.1455499906
 H          2.2309561738       -2.8721987765       -2.8180842252
 H          2.6141912457       -4.1851941446       -0.0978524234
 H          1.6158884797       -4.7376659957       -1.4566815515
 O         -0.2888409167       -3.2237254571       -1.1727827370
 C         -1.4703154007       -2.5839929057       -0.8413439186
 O         -2.4067633454       -2.7927150209       -1.6416845949
 H         -0.9072170854        0.6985897598        0.2636258600
 C         -1.8123535999        1.0006186326       -0.2369224072
 C         -2.9291688715        0.1800566272       -0.1768672409
 C         -4.0880903756        0.5814827072       -0.8301045268
 C         -4.1211857858        1.7761764614       -1.5283408829
 C         -2.9936419497        2.5725853153       -1.6159531113
 C         -1.8263788528        2.1736731695       -0.9742652748
 N         -0.6510268308        2.9389343207       -1.0552983013
 S          0.8215000950        2.1831549161       -1.3486063003
 O          1.4874371594        3.0086647453       -2.3368761490
 O          0.6406709520        0.7963325287       -1.7076749244
 C          1.7321936943        2.3124268638        0.1778289049
 C          3.1111234577        2.2731741427        0.0845727206
 C          3.8683178582        2.3424972712        1.2422318160
 C          3.2361613870        2.4437279822        2.4721974740
 C          1.8533598895        2.4844583935        2.5494808384
 C          1.0894829071        2.4213452267        1.3935774242
 H          0.0132940039        2.4495493752        1.4353595827
 H          1.3596836766        2.5578606463        3.5049707446
 H          3.8239621409        2.4904444835        3.3752428960
 H          4.9441573193        2.3113169727        1.1814752779
 H          3.5583346716        2.1910684062       -0.8930275736
 H         -0.7323590991        3.7683746414       -1.6257372168
 H         -3.0102995503        3.4903401580       -2.1842660194
 H         -5.0277919535        2.0803369964       -2.0291620463
 H         -4.9586437129       -0.0576166827       -0.8077522558
 C         -2.8582093270       -1.1253914313        0.5747324279
 H         -3.6191325548       -1.7946673246        0.1408211673
 C         -3.1768558427       -0.9680282920        2.0554324419
 C         -3.1300725770        0.3482333988        2.7653044396
 C         -4.4496151572       -0.3033729590        2.4899992276
 H         -4.9981400123       -0.7337262749        3.3140830097
 H         -5.0721862122        0.1347802542        1.7250317365
 H         -2.8646954825        1.2217377898        2.1902809490
 H         -2.7500630542        0.3594461446        3.7749087668
 H         -2.8622071722       -1.8342809251        2.6277484669
 O         -0.3351634086       -0.8472515944        2.1301211055
