  62
        -98.94175137
 C         -2.1906411587       -1.2659837334        0.3045459401
 C         -1.7977383062       -0.3247615300       -0.6792601058
 C         -2.6112214608        0.9018484745       -0.7505729021
 C         -3.6363280774        1.0713008865        0.1031315275
 C         -4.5258309649        2.2793045685        0.1528631587
 C         -3.9883633685        3.3312114509        1.1327468938
 C         -2.5073966087        3.6551472332        0.9363119303
 H         -2.2444032408        4.4314942501        1.6581826844
 H         -1.9135488621        2.7724794159        1.1865874678
 C         -2.1438828836        4.1267950499       -0.4786346292
 H         -3.0431684377        4.4530862155       -1.0020755919
 H         -1.4828609167        4.9925607070       -0.3989123264
 C         -1.4110093108        3.0845311518       -1.3253448908
 H         -0.5617740027        2.6939471632       -0.7594648027
 H         -1.0112032504        3.5895756849       -2.2086241955
 C         -2.2568057614        1.9021252184       -1.8155780567
 H         -3.1580596281        2.2758189447       -2.3059024107
 H         -1.6675549634        1.3522401855       -2.5554451110
 H         -4.5793730842        4.2419838568        1.0208579442
 H         -4.1267448556        2.9602496167        2.1511507778
 H         -4.6068275385        2.7055582031       -0.8452100321
 H         -5.5162624277        1.9617354229        0.4835177977
 O         -3.9543184981        0.1658176099        1.0637139814
 C         -3.2359862098       -1.0121324682        1.1960376814
 O         -3.6139949544       -1.7376797796        2.1378023980
 H         -0.0639626456       -0.7994614688        1.8473474983
 C          0.5885891114       -1.4075160003        1.2315400876
 C          0.0313827623       -2.3935785850        0.4259085134
 C          0.8810382074       -3.1559111798       -0.3649187403
 C          2.2488477444       -2.9434250191       -0.3347022351
 C          2.7985363568       -1.9618403330        0.4677990995
 C          1.9548418506       -1.1760693108        1.2436822908
 N          2.4964341968       -0.1467444793        2.0301059289
 S          3.7420682831        0.7712539383        1.3935929212
 O          4.9998725719        0.1116333890        1.6474688754
 O          3.5901868620        2.0768214125        1.9995128449
 C          3.4660888279        0.8634426565       -0.3671949940
 C          4.5062845217        0.5772060559       -1.2283658027
 C          4.2849184473        0.6494876084       -2.5940780424
 C          3.0313683597        0.9979036396       -3.0724030669
 C          1.9974507478        1.2851436347       -2.1950025598
 C          2.2164054633        1.2224088777       -0.8293673119
 H          1.4239460786        1.4321517187       -0.1282571272
 H          1.0153323094        1.5349928374       -2.5612341950
 H          2.8549846211        1.0431676418       -4.1354837868
 H          5.0869963208        0.4271362979       -3.2794007506
 H          5.4604670846        0.2970098686       -0.8120542186
 H          1.8086158002        0.4324630981        2.4876201561
 H          3.8621005039       -1.7899079777        0.5070441850
 H          2.8965713160       -3.5484369564       -0.9502964922
 H          0.4745515574       -3.9099432875       -1.0177802133
 C         -1.4651251917       -2.5888762956        0.4798171758
 H         -1.7158170844       -2.9142083986        1.5038524285
 C         -1.9599984498       -3.6860597668       -0.4532851885
 C         -3.3218982514       -3.6258870076       -1.0767202762
 C         -2.1006243714       -3.4677224852       -1.9289543175
 H         -1.8350250421       -4.2748215332       -2.5958949639
 H         -1.8614633147       -2.4876769286       -2.3095149936
 H         -3.9291680177       -2.7539300711       -0.8804210102
 H         -3.8895083771       -4.5415473318       -1.1501939288
 H         -1.6289090236       -4.6693115228       -0.1338864722
 O         -0.8285155969       -0.4851445739       -1.4622975861
