  62
        -98.94610544
 C         -1.5793273312       -1.3117483376        0.4006763668
 C         -1.5368453167       -0.3005535858       -0.5894567397
 C         -2.4027444402        0.8627571376       -0.3498449113
 C         -3.1326952123        0.9392987285        0.7774092401
 C         -4.0301126063        2.0784394765        1.1780010299
 C         -5.4391422366        2.0031719358        0.5741693360
 C         -5.5228079761        2.3112852534       -0.9213989465
 H         -6.5802121399        2.4333397380       -1.1644704764
 H         -5.0313069243        3.2634334059       -1.1240414741
 C         -4.9318298102        1.2212353688       -1.8264848121
 H         -4.8322505117        0.2921237642       -1.2605084097
 H         -5.6197942707        1.0201818925       -2.6508343035
 C         -3.5781836749        1.5735203164       -2.4436540017
 H         -3.6939445423        2.4234989613       -3.1199418791
 H         -3.2386229732        0.7186605422       -3.0341844014
 C         -2.4843160653        1.9092953408       -1.4212243609
 H         -1.5246480696        1.9328652923       -1.9439961776
 H         -2.6691909760        2.8914502469       -0.9860038331
 H         -5.8485394266        1.0083985369        0.7645486441
 H         -6.0614198221        2.7256357312        1.1071594857
 H         -4.1196998312        2.0354008278        2.2654885523
 H         -3.5672797069        3.0269769113        0.9040593508
 O         -3.1186931044       -0.0375117180        1.7217143630
 C         -2.3641144537       -1.1844581533        1.5516360608
 O         -2.4696825982       -2.0075570159        2.4816070959
 O         -0.8227772501       -0.3435007452       -1.6258974647
 C         -0.7356747682       -2.5751403433        0.3009770881
 C          0.6998659414       -2.1776916358        0.5415248400
 C          1.1994068742       -2.1379317681        1.8399837705
 C          2.4779250959       -1.6742456784        2.0914260373
 C          3.2737067953       -1.2109593021        1.0577622336
 C          2.7755212659       -1.2330606169       -0.2378438864
 C          1.5106088021       -1.7420412834       -0.4949141175
 H          1.1357501630       -1.7421190796       -1.5057120388
 N          3.5418986758       -0.6849458892       -1.2840758092
 S          4.1608637819        0.8453317730       -0.9959766343
 O          4.1808493123        1.5071176561       -2.2822503183
 O          5.4421057688        0.7218192106       -0.3438568372
 C          3.0152680378        1.6545900181        0.1136023957
 C          1.6696402884        1.6795097084       -0.1963366103
 C          0.7937426573        2.2976769234        0.6816128407
 C          1.2719643404        2.8853215748        1.8422095106
 C          2.6266792385        2.8606418900        2.1341144572
 C          3.5067124390        2.2367449906        1.2649259210
 H          4.5657007076        2.1821185655        1.4588199842
 H          2.9973923384        3.3185641196        3.0369471561
 H          0.5818992701        3.3610763324        2.5211548010
 H         -0.2616283005        2.3016436757        0.4570178646
 H          1.3030778444        1.2103096015       -1.0960897341
 H          3.0655484097       -0.7083348984       -2.1749691559
 H          4.2632911494       -0.8211822073        1.2351376231
 H          2.8542839334       -1.6578464121        3.1027546723
 H          0.5638120120       -2.4581494965        2.6534895111
 H         -1.0566684737       -3.2178535678        1.1306336742
 C         -0.9553667082       -3.3166079425       -1.0010643048
 C         -0.4627292887       -4.7258774030       -1.1279316653
 C         -1.9331981274       -4.4505893662       -1.0412196912
 H         -2.5360767754       -4.5796364761       -1.9277517994
 H         -2.4472149518       -4.7016424588       -0.1247518649
 H         -0.0539219018       -5.0475644453       -2.0735767212
 H          0.0227483213       -5.1623623416       -0.2681269298
 H         -0.9044158479       -2.6832524767       -1.8772548889
