  62
        -98.94509762
 C         -2.5608851656       -0.0635576703        0.3840089791
 C         -2.2733644901        0.5697216915       -0.8491134605
 C         -2.0151801185        2.0146889234       -0.7822539530
 C         -2.0803338101        2.6427277000        0.4053897966
 C         -1.8634914944        4.1137809428        0.6135145688
 C         -0.4073024974        4.4420200230        0.9653524721
 C          0.6212272106        3.8167176201        0.0230234240
 H          1.6033405735        4.1838861638        0.3309983360
 H          0.6332403086        2.7334428041        0.1633193953
 C          0.4047569199        4.1300300229       -1.4638039490
 H         -0.2266418880        5.0132481985       -1.5716637785
 H          1.3727760772        4.3653464555       -1.9109345735
 C         -0.1888255396        2.9737305490       -2.2717558585
 H         -0.0345756022        3.1835929617       -3.3337907617
 H          0.3504515655        2.0532902183       -2.0317480540
 C         -1.6880071485        2.7178250748       -2.0687884855
 H         -2.0259820687        2.0497107858       -2.8664483562
 H         -2.2388832339        3.6576076040       -2.1502545043
 H         -0.2932506098        5.5283020267        0.9621637368
 H         -0.2043426222        4.0813841542        1.9767079520
 H         -2.5052321079        4.4367034034        1.4357764323
 H         -2.1559871305        4.6440673998       -0.2910208702
 O         -2.3542222550        1.9989059278        1.5707412426
 C         -2.5722163127        0.6311591655        1.5912886490
 O         -2.7769932158        0.1591480191        2.7307510255
 O         -2.2501788980       -0.0378782585       -1.9518581977
 C         -2.8200681532       -1.5576884335        0.4220149945
 C         -1.6647375589       -2.3170185598       -0.1866171640
 C         -1.8296983144       -3.5015603470       -0.8934435844
 C         -0.7306758166       -4.1638948653       -1.4134196601
 C          0.5456377726       -3.6584424492       -1.2537907320
 C          0.7207123489       -2.4688586267       -0.5528668342
 C         -0.3776863803       -1.8285634409       -0.0053959293
 H         -0.2310785752       -0.9196498531        0.5598862965
 N          1.9979592169       -1.8975826897       -0.4340530819
 S          2.2911377833       -0.6111434661        0.6031122532
 O          2.0366475685       -0.9940908489        1.9767041111
 O          1.5933675153        0.5512463370        0.1184118912
 C          4.0439549937       -0.4158619987        0.3455471720
 C          4.4794203553        0.3958239678       -0.6843256622
 C          5.8413259184        0.5243152942       -0.9067162474
 C          6.7401878863       -0.1589852967       -0.1012904341
 C          6.2887222974       -0.9682124552        0.9305553830
 C          4.9279450714       -1.1004813834        1.1581794686
 H          4.5316455267       -1.7074657975        1.9563863671
 H          6.9899482944       -1.4948742082        1.5575556903
 H          7.7994898842       -0.0573739610       -0.2766102196
 H          6.1954115595        1.1560046785       -1.7052933355
 H          3.7426152656        0.9119316118       -1.2778865490
 H          2.7562361044       -2.5631095702       -0.4669343414
 H          1.3990615716       -4.1674516419       -1.6740738347
 H         -0.8721532526       -5.0855699266       -1.9572801206
 H         -2.8187066567       -3.9049123320       -1.0382304166
 H         -2.8830324413       -1.8293435424        1.4873198511
 C         -4.1471171564       -1.8717111668       -0.2414932442
 C         -5.0072129380       -2.9902399743        0.2630478695
 C         -5.4133518935       -1.5676091480        0.4994493001
 H         -6.2510951214       -1.1681022285       -0.0519308557
 H         -5.3145549369       -1.1640305863        1.4970878099
 H         -5.5720996240       -3.5690597904       -0.4521450927
 H         -4.6465726778       -3.5576616879        1.1078615179
 H         -4.1307037377       -1.6756358978       -1.3075345178
