  62
        -98.94425533
 C         -2.0910952306       -1.3574031201       -0.0766650165
 C         -2.4569548017       -0.3430523350       -0.9946586742
 C         -3.8289494828        0.1671775650       -0.8677003982
 C         -4.6572122265       -0.3452387123        0.0595080946
 C         -6.0867934769        0.0599512828        0.2948371537
 C         -6.2441226594        1.2934928521        1.1945208600
 C         -5.8528464067        2.6237703041        0.5496130841
 H         -6.3701052943        2.7301040588       -0.4044625823
 H         -6.2152115011        3.4170107763        1.2065530514
 C         -4.3428917608        2.8077795502        0.3420193430
 H         -4.0479255125        3.8055917334        0.6748868738
 H         -3.7985886572        2.0919516426        0.9627275832
 C         -3.8786125209        2.6588400081       -1.1069798356
 H         -4.3110298962        3.4574053143       -1.7140708832
 H         -2.7912059283        2.7695820311       -1.1299192129
 C         -4.2327991483        1.3108720044       -1.7485084335
 H         -5.2995476593        1.2667530704       -1.9664540679
 H         -3.6792181451        1.2215624180       -2.6864214025
 H         -7.2950735882        1.3516515663        1.4869363497
 H         -5.6546753947        1.1419118711        2.1017767570
 H         -6.5800163891        0.2395815701       -0.6608133446
 H         -6.5732832865       -0.7867574413        0.7838749246
 O         -4.2769101753       -1.3381453888        0.9060331140
 C         -2.9888145772       -1.8430471889        0.8794153033
 O         -2.7673623652       -2.7198520231        1.7381864686
 O         -1.6983133934        0.1213229928       -1.8862794016
 C         -0.6928487400       -1.9560980159       -0.0413304561
 C          0.2575080783       -0.9477773395        0.5581674314
 C          0.5419492652       -0.9846265291        1.9193802855
 C          1.3942528357       -0.0555722457        2.4888524144
 C          1.9804199793        0.9284134785        1.7126879306
 C          1.6967961472        0.9763034536        0.3540073247
 C          0.8492799682        0.0378803911       -0.2180189139
 H          0.6177136476        0.0977716133       -1.2698609681
 N          2.3015487588        1.9669605943       -0.4414501877
 S          3.9659590632        2.1025289940       -0.3156202913
 O          4.2990938888        2.9154171879        0.8278875764
 O          4.4132077162        2.6042398545       -1.5960855308
 C          4.5367873817        0.4316969318       -0.0538853837
 C          5.1695011014        0.0966965185        1.1255192869
 C          5.5560240073       -1.2185143337        1.3286079374
 C          5.2984960742       -2.1716445875        0.3559535669
 C          4.6639860965       -1.8186772419       -0.8252910646
 C          4.2774692052       -0.5053578214       -1.0346632995
 H          3.7856386601       -0.1985604945       -1.9437662543
 H          4.4641771734       -2.5625008769       -1.5797521701
 H          5.5929494316       -3.1965539311        0.5177097883
 H          6.0509011454       -1.4958211640        2.2453843736
 H          5.3449807864        0.8683934494        1.8571505469
 H          2.0067503759        1.9418926809       -1.4068291331
 H          2.6456439507        1.6632796893        2.1368251716
 H          1.6052138089       -0.0977570900        3.5465008674
 H          0.0758907947       -1.7453035082        2.5296411043
 H         -0.7532099461       -2.8089017800        0.6471859628
 C         -0.2362527840       -2.4589710964       -1.3966356622
 C          0.9950193610       -3.3093035245       -1.4762408965
 C         -0.3535705573       -3.9175969634       -1.7152928662
 H         -0.6207447730       -4.2046240421       -2.7214322383
 H         -0.7654018560       -4.5646829325       -0.9545483601
 H          1.6546487574       -3.1800408677       -2.3204249795
 H          1.5007092108       -3.5403819983       -0.5509815433
 H         -0.4222370737       -1.7622855416       -2.2033143180
