  62
        -98.93889918
 C         -1.5346107312       -1.6143626752        0.1811834527
 C         -1.8309841375       -0.8096188488       -0.9428115346
 C         -2.7992922358        0.2883531585       -0.7408838963
 C         -3.3153344411        0.5056759874        0.4824463340
 C         -4.3255726981        1.5154764819        0.9866734525
 C         -4.8274299983        2.6376771337        0.0825286639
 C         -3.7978797054        3.7317909411       -0.2061210958
 H         -4.2036476982        4.3946310939       -0.9731175243
 H         -3.6588908163        4.3223433481        0.7028262231
 C         -2.4201587634        3.2428905038       -0.6455967412
 H         -1.7696714560        4.1152756815       -0.7526010851
 H         -1.9881535824        2.6179527226        0.1367903468
 C         -2.3877550658        2.4771567209       -1.9654785503
 H         -1.3381920766        2.3031794836       -2.2224604719
 H         -2.8219403776        3.0907486703       -2.7576960298
 C         -3.1043242860        1.1176965292       -1.9566880462
 H         -4.1776411200        1.2425746472       -2.0765878669
 H         -2.7452943823        0.5444417403       -2.8167162636
 H         -5.2239792646        2.2253996241       -0.8407859088
 H         -5.6666771724        3.1067660717        0.6028824598
 H         -5.1869110730        0.9232793243        1.3143778327
 H         -3.8938792988        1.9521827028        1.8931725092
 O         -2.9734626738       -0.2771497956        1.5480349436
 C         -2.1047462271       -1.3450732122        1.4293702971
 O         -1.9199957812       -1.9703063540        2.4903852277
 H          0.7419572474       -1.2770603156       -1.6413045804
 C          1.3587722887       -1.5082519091       -0.7856955887
 C          0.8471895632       -2.3096951766        0.2243079873
 C          1.6498770643       -2.5806069504        1.3260586043
 C          2.9295169406       -2.0584365775        1.4125732566
 C          3.4231040364       -1.2320111198        0.4185279392
 C          2.6220154284       -0.9490034272       -0.6797830814
 N          3.0675455894       -0.0205466198       -1.6442381735
 S          3.4428641094        1.4891213742       -1.0103112138
 O          3.0154339613        2.4530608490       -2.0003789691
 O          4.8451195057        1.5220790573       -0.6748380078
 C          2.4809109457        1.6340080560        0.4906095581
 C          3.1365300780        1.8425732607        1.6870237309
 C          2.4004981830        1.8902634680        2.8597677773
 C          1.0271821701        1.7097268325        2.8184333158
 C          0.3830726903        1.5037115511        1.6086722249
 C          1.1100950288        1.4738054835        0.4302298011
 H          0.6220430807        1.3171103613       -0.5193239189
 H         -0.6837235600        1.3445248241        1.5820024701
 H          0.4508263986        1.7223012791        3.7300648691
 H          2.8989293985        2.0541922797        3.8013651700
 H          4.2085059944        1.9542497750        1.6746711141
 H          2.4147453630        0.0831295789       -2.4093492522
 H          4.4024030321       -0.7851978455        0.4838697397
 H          3.5420222516       -2.2812293070        2.2725408487
 H          1.2560465833       -3.1868610582        2.1284495676
 C         -0.5785448366       -2.8001796419        0.1479208859
 H         -0.7867869717       -3.3726116467        1.0611732961
 C         -0.7930932008       -3.7085890290       -1.0465071497
 C         -0.3071924415       -5.1237809063       -0.9767528218
 C         -1.7771340888       -4.8330148448       -0.9439979280
 H         -2.3731503914       -5.0762282917       -1.8108165337
 H         -2.3008400177       -4.9558038465       -0.0069439273
 H          0.1096421083       -5.5694510102       -1.8668269909
 H          0.1652581403       -5.4460903809       -0.0611996417
 H         -0.7227424033       -3.1986299687       -1.9979328083
 O         -1.3311810200       -0.9758634616       -2.0890780856
