  62
        -98.94690788
 C         -2.0613906696       -1.0485894116       -0.5313787603
 C         -1.4835640001        0.0704892987       -1.1773868601
 C         -2.1783875810        1.3537978182       -0.9935574105
 C         -3.2863423713        1.4086352876       -0.2347491410
 C         -4.0557119222        2.6577342271        0.0813232086
 C         -3.5538833632        3.3115412176        1.3759487288
 C         -2.0361473633        3.4885466086        1.4371627293
 H         -1.8066140740        4.0008406088        2.3746256494
 H         -1.5536355927        2.5088289089        1.4875459696
 C         -1.4382103233        4.2783090888        0.2646229695
 H         -2.2202059335        4.8503976483       -0.2373462709
 H         -0.7136968740        4.9930411493        0.6608652497
 C         -0.6970073724        3.4137024092       -0.7569130401
 H         -0.1046185926        4.0730602995       -1.3976546900
 H         -0.0037548922        2.7543468797       -0.2280558198
 C         -1.5869831515        2.5590657386       -1.6691024004
 H         -0.9626396309        2.1746507289       -2.4808456501
 H         -2.3721174417        3.1804415580       -2.1055267208
 H         -4.0379080938        4.2847273573        1.4800637185
 H         -3.8586087931        2.6882797575        2.2200216587
 H         -5.1068755021        2.3907443165        0.2047642182
 H         -3.9630783724        3.3551602771       -0.7489752814
 O         -3.8177819909        0.3152500673        0.3697195789
 C         -3.2147970900       -0.9238975123        0.2494886993
 O         -3.8021639097       -1.8366199426        0.8663892491
 O         -0.4453466298        0.0282744293       -1.8892612297
 C         -1.4646591387       -2.4487000413       -0.5648461299
 C         -0.4483175991       -2.5872206305        0.5447246205
 C         -0.6096277088       -3.5439861905        1.5392293505
 C          0.2969259308       -3.6336247298        2.5805409309
 C          1.3609258002       -2.7548225892        2.6604134312
 C          1.5316143000       -1.7920390391        1.6700394912
 C          0.6463011004       -1.7352173598        0.6044321409
 H          0.7838619302       -0.9906029998       -0.1610709392
 N          2.5992428094       -0.8872083185        1.7391879915
 S          2.4268999185        0.7313454614        1.3153416013
 O          3.2104220477        1.4463210420        2.3043678816
 O          1.0397515883        1.1089550905        1.2115150207
 C          3.2808702491        0.8335979518       -0.2438514884
 C          4.6628311790        0.8472319127       -0.1971296278
 C          5.3772192795        0.9005845630       -1.3816731175
 C          4.7008555099        0.9395204725       -2.5922532978
 C          3.3158007799        0.9273780516       -2.6218960284
 C          2.5931932895        0.8737118813       -1.4385971186
 H          1.5140882995        0.8521937306       -1.4462844890
 H          2.7837458003        0.9551074412       -3.5595477286
 H          5.2552537002        0.9800988228       -3.5167538276
 H          6.4550894894        0.9112538937       -1.3592233271
 H          5.1465177887        0.8298388231        0.7654452224
 H          3.1640002991       -0.9769939180        2.5712045518
 H          2.0536348499       -2.8047945886        3.4872126015
 H          0.1623950410       -4.3808693699        3.3480611009
 H         -1.4642281984       -4.2037253211        1.5045119903
 H         -2.2960856984       -3.1309153518       -0.3389666202
 C         -0.8720027179       -2.8468695110       -1.9013652696
 C         -0.7334621269       -4.3034421409       -2.2236672095
 C         -1.7541457771       -3.4707280717       -2.9385762399
 H         -1.5859124169       -3.2196169216       -3.9748836699
 H         -2.7956147171       -3.6140492923       -2.6886185903
 H          0.1390172535       -4.6280903304       -2.7692806291
 H         -1.0840046267       -5.0146505911       -1.4909767895
 H         -0.0959075482       -2.1781258905       -2.2470568894
