  62
        -98.94451940
 C         -1.1679156281       -1.8386458316       -0.5597915390
 C         -1.3069247889       -0.5926129422       -1.2227242099
 C         -2.6203743693        0.0620771071       -1.0851880605
 C         -3.5899857589       -0.5294892330       -0.3671196101
 C         -4.9574286593        0.0409775063       -0.1265407506
 C         -5.0038742999        0.8717904273        1.1624386088
 C         -3.8835725906        1.9060352281        1.2758858480
 H         -4.0500603710        2.4666445087        2.1987704476
 H         -2.9230260803        1.3961040388        1.3858623085
 C         -3.7957402911        2.8824936672        0.0951119573
 H         -3.6478368118        3.8905900876        0.4884383565
 H         -4.7349762911        2.8834411562       -0.4603492828
 C         -2.6329302609        2.6040465372       -0.8593215025
 H         -1.7182505809        2.4808599583       -0.2729655923
 H         -2.5018821315        3.4808135668       -1.5005895231
 C         -2.8010671101        1.3845702864       -1.7756790115
 H         -3.7726621201        1.4309253554       -2.2731805916
 H         -2.0202322901        1.4305262663       -2.5408430315
 H         -5.9709025002        1.3763568167        1.2117767983
 H         -4.9303107295        0.1934703080        2.0157036193
 H         -5.2420141297        0.6568324755       -0.9776127611
 H         -5.6620775088       -0.7880073841       -0.0377074000
 O         -3.4207669182       -1.7247638224        0.2553625908
 C         -2.2091407378       -2.3916470617        0.1890167814
 O         -2.1855442471       -3.4688508612        0.8203011322
 H          0.6446770008       -0.1615038497        0.3578959598
 C          1.1622048212       -0.9166363590        0.9261781704
 C          0.9983383321       -2.2546011993        0.5986461015
 C          1.6590954427       -3.2144138883        1.3568658922
 C          2.4667233824       -2.8374927970        2.4154603020
 C          2.6285975915       -1.5026460366        2.7391215609
 C          1.9618729710       -0.5350136776        1.9937077102
 N          2.0834320101        0.8171699127        2.3117697591
 S          1.5260843493        2.0552310216        1.3554811581
 O          2.0749827385        3.2413252324        1.9822080073
 O          0.0884018594        2.0138480806        1.2573134881
 C          2.2893568795        1.8428322909       -0.2409177217
 C          3.5954952198        1.3977990716       -0.3013809313
 C          4.2043515200        1.2734385811       -1.5391389511
 C          3.5025155798        1.5999901397       -2.6895268914
 C          2.1956422095        2.0521845190       -2.6108901018
 C          1.5806212294        2.1768502795       -1.3755609519
 H          0.5593924292        2.5069701189       -1.2800125322
 H          1.6449741394        2.2992141679       -3.5039899120
 H          3.9771874999        1.4996190493       -3.6530121013
 H          5.2202876602        0.9182256017       -1.6034556108
 H          4.1176839999        1.1500232827        0.6085011690
 H          2.7586013599        1.0799262837        3.0106111790
 H          3.2516022113       -1.2084574256        3.5694971607
 H          2.9734742429       -3.5913253062        2.9985011126
 H          1.5207454934       -4.2600331486        1.1244295330
 C          0.1193347024       -2.6477149008       -0.5618255983
 H         -0.1921753369       -3.6921668309       -0.3979884275
 C          0.8579769125       -2.5986486313       -1.8926403183
 C          2.1020000819       -1.7976664407       -2.1127681389
 C          2.1792184629       -3.2916920806       -2.0518533777
 H          2.3656030133       -3.8392729612       -2.9631832173
 H          2.6209828931       -3.7330452897       -1.1715888473
 H          2.4916747315       -1.2273557398       -1.2841222293
 H          2.2153787317       -1.3024186414       -3.0643700392
 H          0.1724170925       -2.6607397424       -2.7314747883
 O         -0.4071268592       -0.0445768522       -1.9066945603
