  62
        -98.94493941
 C          1.9586551059        0.8454904445        0.0503837560
 C          2.2704747118       -0.1079988098        1.0466712405
 C          2.3647518508       -1.4991032036        0.5937131188
 C          2.1171341561       -1.7985192574       -0.6945519735
 C          2.1285839387       -3.1767576001       -1.2993316485
 C          3.5228304362       -3.6728257094       -1.7072489500
 C          4.4431080461       -4.0540745662       -0.5469640253
 H          3.9238244260       -4.7504191713        0.1120436571
 H          5.2960090094       -4.5836994006       -0.9757591917
 C          4.9616224557       -2.8609271205        0.2677067985
 H          4.8198476825       -1.9407980126       -0.3037085091
 H          6.0350076535       -2.9728751561        0.4355655411
 C          4.3038929447       -2.6957499209        1.6377341155
 H          4.7181657693       -1.8024754928        2.1118839963
 H          4.5453355231       -3.5548772255        2.2673428221
 C          2.7779890860       -2.5401038610        1.5900714666
 H          2.3068699287       -3.4955014045        1.3585754503
 H          2.4321096424       -2.2112486369        2.5734209867
 H          3.3823349846       -4.5543488274       -2.3369345337
 H          4.0018929714       -2.9020359890       -2.3151440679
 H          1.6761124744       -3.8829439041       -0.6021210243
 H          1.5022237844       -3.1247741777       -2.1926987446
 O          1.8023694888       -0.8542122544       -1.6207105298
 C          1.7117449106        0.4845362731       -1.2743923926
 O          1.4228151997        1.2423041433       -2.2211298900
 O          2.4558164312        0.1902559774        2.2589808762
 C          1.7942898273        2.3012569967        0.4460768958
 C          0.3920110872        2.7541706842        0.1193550780
 C          0.0969919262        3.9813804036       -0.4599621858
 C         -1.2115747792        4.3124173156       -0.7679012398
 C         -2.2451067685        3.4289257473       -0.5190923780
 C         -1.9618996533        2.2063773996        0.0805750836
 C         -0.6560516371        1.8908091737        0.4131934392
 H         -0.4493856384        0.9365686605        0.8772870180
 N         -2.9867618258        1.2879077150        0.3728640567
 S         -2.6308792246       -0.3592114592        0.2436516177
 O         -2.0050666951       -0.7956091426        1.4679322377
 O         -1.9109751022       -0.6299092627       -0.9804509539
 C         -4.2827639868       -1.0267655705        0.1529901691
 C         -5.0082724121       -1.1585909036        1.3221734567
 C         -6.3049689660       -1.6427886626        1.2547222962
 C         -6.8519676444       -1.9844849998        0.0266291758
 C         -6.1111155286       -1.8488666991       -1.1377526373
 C         -4.8139096801       -1.3636361544       -1.0774951726
 H         -4.1964040942       -1.2472372035       -1.9539412137
 H         -6.5370558792       -2.1183982230       -2.0907179938
 H         -7.8610816249       -2.3617498828       -0.0232613423
 H         -6.8827865471       -1.7521976419        2.1581553263
 H         -4.5364144841       -0.8887301881        2.2524761336
 H         -3.8540735926        1.5121304964       -0.0967137354
 H         -3.2610598187        3.6786858353       -0.7846297694
 H         -1.4265936936        5.2658320187       -1.2261843744
 H          0.8927980066        4.6726712694       -0.6841614400
 H          1.9194202818        2.3239440594        1.5396692386
 C          2.8709743551        3.1570701597       -0.1877814894
 C          3.3623074869        4.3927822180        0.5038075933
 C          4.2353163774        3.1773610218        0.4316209234
 H          5.0966358687        3.1952475091       -0.2190548442
 H          4.3781365597        2.5932990595        1.3291991988
 H          3.6286450133        5.2485941546       -0.0978749427
 H          2.9197231754        4.6411130127        1.4565546264
 H          2.8115240427        3.1605283531       -1.2705199200
