  62
        -98.92709280
 C         -2.5523290040       -0.4765429876       -0.3316414946
 C         -1.9467860061       -1.4688203562       -1.1367790750
 C         -1.3258147821       -2.6064839747       -0.4407673669
 C         -1.3350092558       -2.6354756849        0.9028989877
 C         -0.8206102819       -3.7010116929        1.8407263628
 C          0.4844011479       -4.4184006746        1.4832364128
 C          1.5674326272       -3.5215526080        0.8666405102
 H          1.2894829893       -2.4695391971        0.9654126671
 H          2.5007728703       -3.6636498943        1.4154335993
 C          1.8311002153       -3.8344380409       -0.6077566958
 H          2.8187528322       -3.4515608826       -0.8761678215
 H          1.8503436118       -4.9177897447       -0.7473241198
 C          0.8229290562       -3.2196930939       -1.5751256906
 H          1.0976245059       -3.5140905357       -2.5912051958
 H          0.8890312772       -2.1289276846       -1.5198824637
 C         -0.6437091354       -3.6123463846       -1.3240715486
 H         -1.1740963368       -3.5798421217       -2.2797979367
 H         -0.7188751137       -4.6196975122       -0.9219446016
 H          0.8594828736       -4.8576297567        2.4096960920
 H          0.2739016166       -5.2456771512        0.8067154776
 H         -0.7028017975       -3.1939093949        2.8020165466
 H         -1.6136670346       -4.4454537557        1.9661608416
 O         -1.9091641899       -1.6447893562        1.6425251532
 C         -2.4846370966       -0.5273155628        1.0608903474
 O         -2.8964200209        0.3148820554        1.8790042928
 H         -0.6215831074        0.9533322214       -1.5748766987
 C         -0.9011060006        1.7700188461       -0.9195147738
 C         -2.2370111484        1.9019256631       -0.5431103506
 C         -2.5588761981        2.9504015836        0.3076996951
 C         -1.5742700279        3.8050254525        0.7816787028
 C         -0.2448188046        3.6251663294        0.4503144091
 C          0.0863043377        2.5913546446       -0.4131567508
 N          1.4594360882        2.3113597781       -0.6851984036
 S          2.0008301803        1.2239250676        0.5057224903
 O          1.2945487748       -0.0341559512        0.3965325286
 O          1.9220153089        1.8973892632        1.7772355456
 C          3.7080816463        1.0119711588        0.0364439022
 C          4.5817928297        2.0603345376        0.2526431541
 C          5.9029416650        1.9215916236       -0.1409872920
 C          6.3248261708        0.7446918719       -0.7422168769
 C          5.4357377076       -0.2981844127       -0.9525759166
 C          4.1120974819       -0.1650413611       -0.5624100193
 H          3.3850211219       -0.9497674025       -0.7009468740
 H          5.7661136563       -1.2123653378       -1.4189727475
 H          7.3537573839        0.6385137084       -1.0475806825
 H          6.5979987626        2.7294755074        0.0212668268
 H          4.2082485791        2.9514401422        0.7286437143
 H          1.5493374220        1.8312062478       -1.5739321797
 H          0.5328566870        4.2447056148        0.8652626364
 H         -1.8513697785        4.6046426616        1.4521647128
 H         -3.5677075879        3.0970262027        0.6490456515
 C         -3.1125664326        0.7676290889       -1.0175383179
 H         -2.8793917087        0.6144886387       -2.0845513620
 C         -4.6277386499        0.8157452735       -0.9400558830
 C         -5.4368496657        1.2644399925        0.2368655714
 C         -5.4399406045        2.0731144371       -1.0265707934
 H         -6.3325179040        2.0556573760       -1.6342595664
 H         -4.9190155644        3.0165027690       -1.0461819132
 H         -6.3216103842        0.6913498680        0.4755149686
 H         -4.9132754308        1.6147910334        1.1106691877
 H         -5.0323508852       -0.0418649747       -1.4736819425
 O         -1.9283716902       -1.4080529555       -2.3981051974
