  62
        -98.94480675
 C          1.9283725501        0.2388094996        0.0587068911
 C          2.9810742200        1.0542386891        0.5403499821
 C          4.2720572100        0.3848971290        0.7450013117
 C          4.3735577101       -0.9344882008        0.5009525603
 C          5.6383776501       -1.7332695508        0.6220761797
 C          6.4006906303       -1.7716829094       -0.7097738403
 C          6.5851159804       -0.3982406787       -1.3552787288
 H          7.1625279505       -0.5443424177       -2.2707723788
 H          5.6078269304       -0.0097093384       -1.6509498485
 C          7.2917504402        0.6325855004       -0.4638882676
 H          7.8183638200        0.1240649596        0.3444475120
 H          8.0420207202        1.1552859210       -1.0609173169
 C          6.3684426400        1.7005132197        0.1255029534
 H          6.9919983699        2.4923740793        0.5489030944
 H          5.7695961701        2.1469622205       -0.6722908862
 C          5.4190008098        1.2250246885        1.2325298027
 H          4.9681984797        2.1120148780        1.6871084436
 H          5.9857367397        0.6956133677        2.0010462223
 H          7.3766730703       -2.2284796795       -0.5358969006
 H          5.8478965204       -2.4060657787       -1.4066543610
 H          6.2643008699       -1.2980367516        1.3986719602
 H          5.3745009501       -2.7526150211        0.9089582385
 O          3.3333271202       -1.6906804003        0.0666433393
 C          2.0887030002       -1.1264067801       -0.1780473803
 O          1.2350278903       -1.9334220897       -0.5912180313
 O          2.8454040899        2.2820149189        0.7901894334
 C          0.5724359401        0.8769026798       -0.1931993984
 C         -0.4569797800        0.2222427688        0.6929433307
 C         -0.3197442903        0.3559304974        2.0734301208
 C         -1.2075663904       -0.2570391536        2.9346151500
 C         -2.2583018403       -1.0092685331        2.4375789391
 C         -2.4052163700       -1.1493844616        1.0633096289
 C         -1.5105746399       -0.5293599907        0.1993729197
 H         -1.6362353497       -0.6753657896       -0.8595981505
 N         -3.4483116999       -1.9289158711        0.5388329779
 S         -4.3647503797       -1.3991046498       -0.7526395117
 O         -5.5003168397       -2.2943238198       -0.7790652328
 O         -3.5691668195       -1.3400781685       -1.9513431115
 C         -4.8973160099        0.2350797097       -0.2766764001
 C         -4.1362723498        1.3305082401       -0.6312319688
 C         -4.5287056000        2.5861108096       -0.1942734875
 C         -5.6670328501        2.7241151887        0.5846510024
 C         -6.4227815001        1.6136003883        0.9293823311
 C         -6.0335819600        0.3554583888        0.4999578199
 H         -6.5967467500       -0.5328437215        0.7361820788
 H         -7.3103137202        1.7246005177        1.5312153211
 H         -5.9677044502        3.7034408784        0.9220672734
 H         -3.9427541800        3.4503116099       -0.4638027265
 H         -3.2601578997        1.1865612308       -1.2412062688
 H         -4.0354829700       -2.3622230419        1.2363057673
 H         -2.9497815204       -1.4965088438        3.1081725784
 H         -1.0847862006       -0.1485927047        4.0016184902
 H          0.5048372997        0.9397213570        2.4591543016
 H          0.6841429700        1.9236186495        0.1249935127
 C          0.2320219504        0.8530677914       -1.6674333085
 C         -0.7000703596        1.8801644519       -2.2347570476
 C          0.7637012005        1.9398816023       -2.5512034073
 H          1.0894122406        1.6808459434       -3.5475291075
 H          1.3564871003        2.7133224818       -2.0848582664
 H         -1.3828779894        1.5799766927       -3.0160349580
 H         -1.0956931597        2.6210277012       -1.5562287369
 H          0.1999224405       -0.1488671782       -2.0809710396
