  62
        -98.94184557
 C         -1.1651299289       -1.4991582510        0.5240713935
 C         -2.1130596417       -1.1826937446       -0.4749830318
 C         -3.1666467236       -0.2150615908       -0.1081006277
 C         -3.1606055549        0.3136727703        1.1294858552
 C         -4.0955650812        1.3462205726        1.6991335960
 C         -3.7648358741        2.7673642477        1.2111813024
 C         -3.4086514398        2.8766270130       -0.2697691189
 H         -3.0673032180        3.8994768033       -0.4529053762
 H         -2.5594274478        2.2231329930       -0.4830104732
 C         -4.5501013332        2.5833317183       -1.2410384677
 H         -5.3491698144        3.3105508563       -1.0778381335
 H         -4.1624549508        2.7363943959       -2.2515714365
 C         -5.1549065996        1.1805967003       -1.1674100513
 H         -5.8072688596        1.0632129357       -2.0379125001
 H         -5.7882630210        1.0782949895       -0.2904232299
 C         -4.1430476435        0.0403683602       -1.2304365217
 H         -4.6892679507       -0.9004348311       -1.3725003473
 H         -3.5297018490        0.1583332416       -2.1311720374
 H         -4.6122962724        3.4179631898        1.4344808086
 H         -2.9018541877        3.1261349869        1.7779215824
 H         -5.1241377624        1.0832321349        1.4704176279
 H         -3.9766454718        1.3161983288        2.7845365847
 O         -2.2156425387       -0.0099632584        2.0573371253
 C         -1.1908988604       -0.8919155616        1.7775468746
 O         -0.3764299929       -1.0542001955        2.7108323509
 H          0.4911788189        0.1354470404       -0.2492088090
 C          1.0249889343       -0.4976156552       -0.9401479978
 C          0.8542261356       -1.8728851887       -0.8794927849
 C          1.5286840520       -2.6628256413       -1.8028484692
 C          2.3381347864       -2.0787882636       -2.7620193999
 C          2.5093077422       -0.7068752311       -2.8130294173
 C          1.8409427763        0.0913124319       -1.8918354648
 N          1.9702298982        1.4877594797       -1.9044762270
 S          1.9331539238        2.3468872921       -0.4711810723
 O          0.5961493633        2.3855745808        0.0651134764
 O          2.5117195206        3.6284928741       -0.8157184819
 C          3.0420102854        1.4647811050        0.6127183152
 C          4.3924345458        1.5393212624        0.3264182415
 C          5.2877843376        0.8316228914        1.1101565873
 C          4.8201046116        0.0568762052        2.1614898224
 C          3.4640330475       -0.0038507692        2.4392536943
 C          2.5628004707        0.7060992794        1.6602709504
 H          1.5037092311        0.6676074822        1.8632986085
 H          3.0881040066       -0.6029106672        3.2535517840
 H          5.5148020270       -0.5002487149        2.7700053028
 H          6.3437005082        0.8827860410        0.8992302117
 H          4.7164433320        2.1623722768       -0.4913284697
 H          2.6552633033        1.8519808293       -2.5495529316
 H          3.1416583122       -0.2558736468       -3.5620347943
 H          2.8494701642       -2.7028096675       -3.4790256421
 H          1.4139693065       -3.7341146105       -1.7757108350
 C         -0.0185481985       -2.4422719001        0.2150996134
 H          0.5889748930       -2.4891984706        1.1321647176
 C         -0.5359608932       -3.8317921878       -0.0975335840
 C          0.2557796916       -5.0429221440        0.2920680545
 C         -1.0008032285       -4.6995616573        1.0321933368
 H         -1.8756667979       -5.3145906390        0.8842994304
 H         -0.9144301261       -4.2981844106        2.0318147179
 H          0.2423193533       -5.9002207741       -0.3640437906
 H          1.1965602469       -4.8861925313        0.7978979428
 H         -1.1047610178       -3.8635542687       -1.0193786664
 O         -2.0830989088       -1.6750396553       -1.6340878149
