  62
        -98.94951998
 C         -1.6685485076       -0.7494501828       -0.7004565616
 C         -1.5544414559       -1.5277470048        0.4764540079
 C         -0.6138083569       -2.6560978440        0.4097592875
 C          0.0935805918       -2.8601882500       -0.7157895422
 C          1.0799759410       -3.9731831095       -0.9240669625
 C          2.5084604448       -3.5653698237       -0.5409812114
 C          2.6247673303       -2.9160074559        0.8381366191
 H          3.6855340421       -2.7258996264        1.0204824499
 H          2.1282578799       -1.9428452111        0.8362787196
 C          2.0507644815       -3.7528380012        1.9892568482
 H          2.7507846014       -3.7171334287        2.8267209186
 H          1.9587191315       -4.7969244701        1.6858104873
 C          0.7038462162       -3.2494877585        2.5128255878
 H          0.7614717566       -2.1692143292        2.6739724587
 H          0.5159679410       -3.7193023374        3.4824519273
 C         -0.5091794162       -3.5405278059        1.6195159169
 H         -0.5089616663       -4.5942958257        1.3300574361
 H         -1.4102138046       -3.3458501376        2.2089227166
 H          3.1382183761       -4.4568254399       -0.5751859718
 H          2.8834690921       -2.8589957568       -1.2855161407
 H          0.7695658023       -4.8331315069       -0.3332301334
 H          1.0635714889       -4.2468329585       -1.9808675228
 O         -0.0030338498       -2.0570619282       -1.8071702317
 C         -0.8789155393       -0.9819226796       -1.8249103913
 O         -0.8621379822       -0.3226130290       -2.8839898808
 H         -0.1804252378        1.3010090023       -0.2566853791
 C         -0.8836102039        1.7488500587        0.4302884308
 C         -2.2301642570        1.4253981019        0.3238399598
 C         -3.1278688816        2.0254845800        1.1964158098
 C         -2.6743284636        2.8982955348        2.1709825807
 C         -1.3263342110        3.1745981515        2.3072856317
 C         -0.4217361062        2.5890254934        1.4283843117
 N          0.9553526962        2.8409210198        1.5190641127
 S          2.0345291744        1.6109363296        1.1605903723
 O          1.5122652215        0.3119632444        1.5106377110
 O          3.2568034179        2.0041850371        1.8319320233
 C          2.2842152767        1.7459865585       -0.5959780774
 C          2.5430445492        2.9938007164       -1.1279201363
 C          2.7562039710        3.1073391354       -2.4919822961
 C          2.7093702005        1.9785034665       -3.2964675170
 C          2.4548772780        0.7320155285       -2.7467295281
 C          2.2428800861        0.6133284195       -1.3828512583
 H          2.0263717565       -0.3375260287       -0.9209762392
 H          2.4019901197       -0.1459474905       -3.3705387288
 H          2.8685765719        2.0681385657       -4.3594430469
 H          2.9538477207        4.0745352838       -2.9254986052
 H          2.5691402671        3.8468160756       -0.4706819656
 H          1.2424479510        3.3767694964        2.3251224133
 H         -0.9731710250        3.8317708175        3.0873264924
 H         -3.3802817095        3.3551837912        2.8479693007
 H         -4.1792672737        1.8006592203        1.1238322690
 C         -2.6236127461        0.4312685366       -0.7415199412
 H         -2.4785690109        0.9059480459       -1.7232734107
 C         -4.0576216308       -0.0421927895       -0.6324224123
 C         -5.1648076527        0.7499395918       -1.2585813723
 C         -4.7443845251       -0.5560898318       -1.8608157631
 H         -5.4027941335       -1.4064287155       -1.7659935842
 H         -4.1840610744       -0.5389989466       -2.7844410728
 H         -4.8981886735        1.6564912796       -1.7803332915
 H         -6.1169309125        0.7947660507       -0.7516397728
 H         -4.2559851163       -0.5531322083        0.3027266371
 O         -2.2227486643       -1.3099821191        1.5210839177
