  62
        -98.93177254
 C          1.9120274031        0.1563489007        0.8991905649
 C          2.7591826112        0.8222617433       -0.0171711697
 C          4.1373981343        0.2985790365       -0.1410920604
 C          4.5127898399       -0.7570319438        0.6012144700
 C          5.8431311079       -1.4662652325        0.6379769492
 C          7.0990077331       -0.5811800430        0.6494659386
 C          7.8908033279       -0.6311299711       -0.6584868078
 H          8.9280447589       -0.3596368578       -0.4495192578
 H          7.8915705961       -1.6599236640       -1.0248831693
 C          7.3837074053        0.2969351545       -1.7609627285
 H          7.6165334333        1.3311387846       -1.4980386018
 H          7.9384714783        0.0611634295       -2.6722391774
 C          5.8862127838        0.2005445660       -2.0591412334
 H          5.5597495166       -0.8387774666       -2.0432677529
 H          5.7241083772        0.5691579189       -3.0743211462
 C          5.0157134674        1.0399783668       -1.1120983226
 H          5.6418000769        1.7433563829       -0.5556758285
 H          4.3230878223        1.6528483898       -1.6973481296
 H          7.7495399732       -0.9380990437        1.4496645017
 H          6.8274354781        0.4455899954        0.8894551093
 H          5.8878081527       -2.1620622676       -0.2037379803
 H          5.8118418893       -2.0771192283        1.5432071247
 O          3.6551709301       -1.3784897564        1.4620331440
 C          2.3541935976       -0.9492046730        1.6288515314
 O          1.6947547828       -1.6159501801        2.4527420879
 O          2.4054689991        1.8074096603       -0.7136363315
 C          0.4707798191        0.5651996706        1.1551524324
 C         -0.4569694373       -0.1171951147        0.1837203180
 C         -0.2402708853       -0.0492293444       -1.1889864086
 C         -1.1070197048       -0.6721403893       -2.0683608395
 C         -2.2090162595       -1.3665089445       -1.6000876061
 C         -2.4370288952       -1.4351021344       -0.2326463632
 C         -1.5626118157       -0.8134148267        0.6493190175
 H         -1.7362685386       -0.8852738850        1.7146393246
 N         -3.5810640139       -2.1101469615        0.2413906793
 S         -5.0483060032       -1.4968452504       -0.2982057436
 O         -6.0329611885       -1.9522745191        0.6563184094
 O         -5.2545158935       -1.8949610545       -1.6669250060
 C         -4.8338634338        0.2701411716       -0.1931742047
 C         -4.9626928924        0.8708509417        1.0436226125
 C         -4.6991870077        2.2257394570        1.1617127738
 C         -4.2990691716        2.9502263719        0.0491503106
 C         -4.1770177057        2.3329180028       -1.1856412902
 C         -4.4461792220        0.9793995661       -1.3120402801
 H         -4.3661411605        0.4642931327       -2.2549117784
 H         -3.8663160038        2.8995037886       -2.0486147890
 H         -4.0777990610        4.0009063318        0.1465200295
 H         -4.7967886110        2.7103889955        2.1199361978
 H         -5.2769013586        0.2730167939        1.8845011797
 H         -3.5980028786       -2.2081233121        1.2467786671
 H         -2.8998397139       -1.8510270026       -2.2712062812
 H         -0.9241343216       -0.6152076648       -3.1307296449
 H          0.6107143732        0.5034333974       -1.5563320218
 H          0.2413629112        0.1751079904        2.1593545614
 C          0.2698693890        2.0750573064        1.1989036630
 C         -0.5562659653        2.8314587386        0.2062375829
 C         -1.0643517658        2.6317138125        1.5999978035
 H         -1.0921402735        3.4757226286        2.2719476131
 H         -1.8726621461        1.9286504670        1.7366681118
 H         -0.2067439593        3.8092533056       -0.0869255012
 H         -1.0320568942        2.2815358035       -0.5901950191
 H          1.1453214514        2.5874628269        1.5831157465
