  62
        -98.94329495
 C         -1.1246374399       -1.6839059607       -0.2316486598
 C         -2.3908706399       -1.4739835807        0.3548594501
 C         -3.1574805002       -0.3119650412       -0.1297489606
 C         -2.6111195804        0.4808800584       -1.0682211911
 C         -3.1600768208        1.7676217979       -1.6215637819
 C         -2.6625721411        2.9668885785       -0.7934968626
 C         -3.5685761912        3.3606159390        0.3705985271
 H         -3.0651680915        4.1646404595        0.9126955267
 H         -4.5099407413        3.7579251985       -0.0160156931
 C         -3.8695732009        2.2253773195        1.3513685378
 H         -2.9511635108        1.6647497399        1.5405760282
 H         -4.1742241811        2.6710780400        2.3005968276
 C         -4.9788118407        1.2823636789        0.8628659384
 H         -5.7288015406        1.1694543592        1.6488279785
 H         -5.4875433708        1.7381094882        0.0136004581
 C         -4.5160806903       -0.1320564212        0.4923606092
 H         -5.2605044102       -0.5856577918       -0.1716748805
 H         -4.4888369901       -0.7501690606        1.3957456696
 H         -1.6715623411        2.7282915290       -0.3962422325
 H         -2.5563467814        3.8322239082       -1.4515426431
 H         -4.2451347708        1.7428479676       -1.6613873119
 H         -2.7742933308        1.8584846074       -2.6391674119
 O         -1.3939038004        0.2287449484       -1.6244476310
 C         -0.6166814501       -0.8422436312       -1.2205439703
 O          0.4782691099       -0.9393716112       -1.8052890302
 O         -2.8586187097       -2.2194212903        1.2608048305
 C         -0.2451868096       -2.8097379302        0.2741248809
 C          1.0827508103       -2.2711552295        0.7516449206
 C          2.2580109505       -3.0114320592        0.6902155310
 C          3.4517327604       -2.4747419386        1.1400166207
 C          3.5078340600       -1.1844779783        1.6353216199
 C          2.3381872398       -0.4377958286        1.7033783995
 C          1.1390634499       -0.9932949492        1.2906069898
 H          0.2415390698       -0.3979076894        1.3666778494
 N          2.3345361694        0.8877691217        2.1802856987
 S          1.6315563991        2.0606848109        1.2154594980
 O          2.1208164088        3.3104031214        1.7643441172
 O          0.1986804192        1.9100110005        1.1979360480
 C          2.3091864592        1.8431005101       -0.4204535319
 C          1.4744404392        1.9071648792       -1.5147271220
 C          2.0139877292        1.7627205686       -2.7826928619
 C          3.3744335593        1.5539169989       -2.9334984117
 C          4.2045308493        1.5012218198       -1.8241383017
 C          3.6706403292        1.6513629804       -0.5556642618
 H          4.2972760792        1.6268911711        0.3208898882
 H          5.2639487393        1.3409246100       -1.9442195416
 H          3.7897813193        1.4311124184       -3.9213993117
 H          1.3637994092        1.7993966779       -3.6418088919
 H          0.4174472191        2.0516669590       -1.3620580320
 H          3.2278411793        1.2094930321        2.5252848785
 H          4.4428309299       -0.7605534679        1.9688154897
 H          4.3545042805       -3.0638579084        1.0887099311
 H          2.2380300308       -4.0104884295        0.2860980816
 H         -0.7778492494       -3.2377230898        1.1373261911
 C         -0.0933559893       -3.8844316508       -0.7849027185
 C          0.0008217111       -5.3299302405       -0.3992864076
 C         -1.2448512990       -4.8069520412       -1.0467913279
 H         -1.4584279189       -5.0897958819       -2.0665523478
 H         -2.1265534690       -4.6799986511       -0.4354864480
 H          0.6429230613       -5.9768552507       -0.9779504672
 H         -0.0429754788       -5.5731001199        0.6517331325
 H          0.4788275507       -3.5419542211       -1.6398772687
