  62
        -98.94080019
 C         -2.5850501241       -1.3233517082        0.2205506893
 C         -2.4229586498       -0.2210263766       -0.6564808501
 C         -3.5644873545        0.7067894854       -0.7377822877
 C         -4.6717472206        0.4672326874       -0.0139673811
 C         -5.8815082972        1.3538805739        0.0306180771
 C         -5.7731311086        2.3821612399        1.1651457809
 C         -4.4408400534        3.1314338468        1.1943505143
 H         -3.6392020205        2.4285904849        1.4334667034
 H         -4.4905131380        3.8518470141        2.0136462180
 C         -4.0959219044        3.8645541657       -0.1094733184
 H         -3.7285977211        4.8630425716        0.1366924703
 H         -4.9952845971        3.9900798917       -0.7135824855
 C         -3.0116587335        3.1885220003       -0.9512126812
 H         -2.1378248869        2.9786480751       -0.3281482330
 H         -2.6950004895        3.8917686502       -1.7264747322
 C         -3.4247296899        1.8894385023       -1.6545842223
 H         -2.6304022394        1.6305778582       -2.3612418237
 H         -4.3459317624        2.0526631490       -2.2180193200
 H         -5.8932978058        1.8608795178        2.1175958445
 H         -6.5917488825        3.0967233132        1.0627740694
 H         -6.7596477801        0.7288768036        0.2014780610
 H         -5.9891823463        1.8616905571       -0.9257872555
 O         -4.7937727132       -0.6028019306        0.8114929853
 C         -3.7538037620       -1.5027446948        0.9680812485
 O         -3.9879592279       -2.4108955806        1.7898333075
 O         -1.3951052993       -0.0078162295       -1.3509574762
 C         -1.4867268850       -2.3483739041        0.4578784796
 C         -0.1841286296       -1.6413138873        0.7348922072
 C          0.0281279569       -1.0739728675        1.9877002972
 C          1.1948326307       -0.3851189609        2.2607795808
 C          2.1686601671       -0.2389179041        1.2881037485
 C          1.9552348372       -0.7811874616        0.0282640684
 C          0.7924659618       -1.4940977312       -0.2359492451
 H          0.6290828175       -1.8995043583       -1.2222224921
 N          2.9301021307       -0.6357852409       -0.9705481633
 S          3.7534889298        0.8150484373       -1.1282259109
 O          2.9642989417        1.9474320410       -0.7035779897
 O          4.2187732682        0.8325310510       -2.4983379699
 C          5.1569693997        0.6097436069       -0.0487471839
 C          5.9150430315       -0.5379094205       -0.1750790143
 C          7.0167696279       -0.7069373956        0.6480350214
 C          7.3428508475        0.2701335630        1.5768000680
 C          6.5744432438        1.4184606415        1.6891841863
 C          5.4704223057        1.5929357063        0.8690123189
 H          4.8412971431        2.4672928100        0.9251930244
 H          6.8292159264        2.1775543180        2.4112813403
 H          8.2007197435        0.1360778903        2.2166795753
 H          7.6165872834       -1.5987948750        0.5634432194
 H          5.6304444532       -1.2718897819       -0.9102033786
 H          2.6416782408       -0.9881547483       -1.8717110630
 H          3.0736024011        0.3104189932        1.4897881589
 H          1.3481428654        0.0464553974        3.2383736702
 H         -0.7400184360       -1.1727932853        2.7428854638
 H         -1.7877819085       -2.8735889270        1.3782815927
 C         -1.3664242342       -3.4119558296       -0.6237350915
 C         -2.5962507276       -4.0027386399       -1.2444367982
 C         -1.6734775891       -3.1573631225       -2.0674634724
 H         -1.0609518158       -3.6461548318       -2.8116012089
 H         -1.9947353275       -2.1679062130       -2.3516868979
 H         -2.6231482402       -5.0664960585       -1.4260673312
 H         -3.5485154717       -3.5843832058       -0.9518647367
 H         -0.5530584852       -4.1009202870       -0.4161128065
