  62
        -98.94951952
 C         -1.6057012055       -0.8602923326       -0.6997096715
 C         -1.4421314725       -1.6438829395        0.4677320948
 C         -0.4194576327       -2.6980130703        0.3936814395
 C          0.3087078194       -2.8339203099       -0.7288818420
 C          1.3768272243       -3.8675267254       -0.9432984672
 C          2.7685612527       -3.3594839799       -0.5450915330
 C          2.8282587679       -2.7201040552        0.8423439028
 H          3.8712021427       -2.4551564681        1.0341459325
 H          2.2618890188       -1.7858748536        0.8485464469
 C          2.3105742916       -3.6105351860        1.9798452199
 H          2.9999813350       -3.5312230792        2.8231241140
 H          2.2998715484       -4.6551588351        1.6647296257
 C          0.9260013233       -3.2161156186        2.4985813043
 H          0.7677676783       -3.7098555192        3.4615769212
 H          0.9010558529       -2.1365043817        2.6721118951
 C         -0.2559287449       -3.5872048732        1.5933806501
 H         -0.1740178810       -4.6342402078        1.2914713700
 H         -1.1727311862       -3.4685763169        2.1786540146
 H          3.0949494723       -2.6182703219       -1.2786289811
 H          3.4630208741       -4.2012807860       -0.5853180673
 H          1.1278426793       -4.7554915670       -0.3649751954
 H          1.3875464702       -4.1285463472       -2.0033723685
 O          0.1591438058       -2.0264690244       -1.8109481585
 C         -0.7929035219       -1.0182187792       -1.8207626286
 O         -0.8172590274       -0.3443068816       -2.8704110650
 H         -0.2694441966        1.2927657757       -0.2483008795
 C         -0.9997809099        1.6806940491        0.4467055120
 C         -2.3192165100        1.2594000932        0.3429924956
 C         -3.2539985217        1.7816568517        1.2265228161
 C         -2.8607045872        2.6755876406        2.2082505940
 C         -1.5364491863        3.0511068704        2.3400594515
 C         -0.5959175650        2.5437235792        1.4503203519
 N          0.7590051672        2.8977482504        1.5346930369
 S          1.9218817468        1.7516693644        1.1593852515
 O          1.5013767804        0.4176807967        1.5154161087
 O          3.1207337978        2.2328923469        1.8154568448
 C          2.1366344058        1.9027852626       -0.6004563567
 C          2.2024236834        0.7654502823       -1.3790071397
 C          2.3821226503        0.8939185082       -2.7465054898
 C          2.4978480172        2.1554687779       -3.3083594654
 C          2.4396611146        3.2895825043       -2.5121178514
 C          2.2582490067        3.1662323610       -1.1442350980
 H          2.2037617269        4.0233106780       -0.4939938378
 H          2.5296519831        4.2684415587       -2.9550434859
 H          2.6307033773        2.2522731174       -4.3743285200
 H          2.4117511747        0.0102603840       -3.3637374849
 H          2.0906442063       -0.1983759895       -0.9071770348
 H          1.0107602215        3.4449595521        2.3449605192
 H         -1.2286538582        3.7252613815        3.1248338147
 H         -3.5945855683        3.0711690078        2.8940798304
 H         -4.2862395356        1.4801452767        1.1567878171
 C         -2.6416800734        0.2505491182       -0.7323354149
 H         -2.5270824834        0.7437642517       -1.7089708224
 C         -4.0401857904       -0.3206041919       -0.6329862570
 C         -5.1950738984        0.4000121728       -1.2593893791
 C         -4.6851198840       -0.8704647314       -1.8684652962
 H         -5.2854000597       -1.7637277970       -1.7828377982
 H         -4.1230056628       -0.8091646115       -2.7891242125
 H         -4.9870245837        1.3260298032       -1.7735674822
 H         -6.1505680383        0.3776990061       -0.7574146246
 H         -4.2077737741       -0.8509416509        0.2972662307
 O         -2.1313247734       -1.4904365501        1.5102484139
