  62
        -98.94483837
 C          1.0330209552        1.1596527765       -0.2936733647
 C          2.1036141337        1.3490943888        0.6202880833
 C          2.9787129060        0.1960590129        0.8495023730
 C          2.7237050610       -0.9650875838        0.2202337848
 C          3.5010396544       -2.2441756292        0.3722211317
 C          4.7547308182       -2.3240026653       -0.5095872810
 C          5.9172944414       -1.4324523158       -0.0716338128
 H          6.1321360473       -1.6081149302        0.9828843948
 H          6.7951589796       -1.7476131662       -0.6393305248
 C          5.6888294750        0.0668047096       -0.3093319780
 H          6.5795865803        0.5033171640       -0.7670316893
 H          4.8672266503        0.2027878445       -1.0164386809
 C          5.3893814327        0.8708083790        0.9559821611
 H          6.2596169701        0.8532302407        1.6159643335
 H          5.2075720422        1.9091884277        0.6671113867
 C          4.1684221292        0.3772852861        1.7433073079
 H          4.4045376963       -0.5543577999        2.2568721048
 H          3.9123502815        1.1341874787        2.4886260421
 H          4.4754564505       -2.0790701583       -1.5368574153
 H          5.0970589480       -3.3613258517       -0.4963958193
 H          3.7809746391       -2.3804489455        1.4170186729
 H          2.8260777068       -3.0507182751        0.0812633601
 O          1.6850285433       -1.1127980896       -0.6406138065
 C          0.8265131643       -0.0620154244       -0.9360790413
 O         -0.0496631462       -0.3653865015       -1.7695963963
 H         -1.7078288183        0.3629291788       -0.3576615021
 C         -1.9236248405        1.1594900421        0.3356782173
 C         -1.0929954477        2.2704031272        0.3852555978
 C         -1.3936393022        3.2936354402        1.2761592598
 C         -2.5055050722        3.2067328031        2.0952316010
 C         -3.3326035315        2.1000374681        2.0427009991
 C         -3.0354417635        1.0664162818        1.1594799099
 N         -3.8215324007       -0.0888487324        1.1319077250
 S         -3.8618675551       -1.1404227583       -0.1596379585
 O         -3.9416371188       -0.4428779273       -1.4216039738
 O         -4.9871111835       -2.0046236778        0.1394239093
 C         -2.3722064043       -2.1067297686       -0.0405544135
 C         -1.7738251947       -2.2972175658        1.1885061673
 C         -0.6582696661       -3.1146776809        1.2689706546
 C         -0.1703515975       -3.7331321362        0.1286680236
 C         -0.7807417123       -3.5296102599       -1.0977459125
 C         -1.8919822061       -2.7073722825       -1.1857671129
 H         -2.3830253669       -2.5066350518       -2.1244721591
 H         -0.3900181572       -3.9966777285       -1.9875864082
 H          0.6936649662       -4.3760180477        0.1956280151
 H         -0.1716015693       -3.2641583871        2.2198272566
 H         -2.1737286200       -1.8007079961        2.0574957519
 H         -4.6781726031       -0.0683296352        1.6630163092
 H         -4.1981412744        2.0283876391        2.6832224899
 H         -2.7303513622        4.0078706692        2.7827410482
 H         -0.7427962061        4.1534964417        1.3329805714
 C          0.1192404944        2.3533143617       -0.5120976161
 H          0.7070694506        3.2277250173       -0.1998444390
 C         -0.3102065624        2.5557616210       -1.9515603398
 C         -0.6716287440        3.9339773868       -2.4151657441
 C          0.5949091375        3.2899812202       -2.8924113299
 H          0.6536929770        2.9542617019       -3.9168086283
 H          1.5319190780        3.6567472057       -2.4988067995
 H         -1.4886531642        4.0426790815       -3.1119210703
 H         -0.5909418142        4.7410178139       -1.7027056933
 H         -0.8790792621        1.7263309685       -2.3521728423
 O          2.3172700466        2.4388433595        1.2162688759
