  62
        -98.93430308
 C         -2.5294755821       -0.3805327847        0.6141697715
 C         -2.3989861490        0.2861937497       -0.6275435554
 C         -2.2534222115        1.7531396506       -0.5790899020
 C         -2.1787255820        2.3747423794        0.6111418444
 C         -2.0204650443        3.8382470373        0.9664279219
 C         -1.6057365614        4.8568673846       -0.0917100145
 C         -0.1782807010        4.6955611945       -0.6136770657
 H         -0.0317096989        5.4133394470       -1.4241875472
 H          0.5156475211        4.9531519898        0.1905181477
 C          0.2008633506        3.3030130611       -1.1134474097
 H          1.2355972078        3.3500327406       -1.4651575639
 H          0.1869242884        2.5871399201       -0.2879632628
 C         -0.6498800201        2.7614138851       -2.2603839982
 H         -0.1836112377        1.8325172032       -2.6002951033
 H         -0.6410900619        3.4690658291       -3.0923468447
 C         -2.1112254465        2.4382793495       -1.9079162241
 H         -2.7355904571        3.3276300247       -1.9484890616
 H         -2.4880444483        1.7352372763       -2.6566943069
 H         -1.6718597265        5.8399666335        0.3827611188
 H         -2.3152574073        4.8558751772       -0.9138757045
 H         -1.2977248421        3.8625547529        1.7886419842
 H         -2.9817835813        4.1491084374        1.3909600343
 O         -2.2907419776        1.6873886096        1.7869965943
 C         -2.4378021338        0.3134782622        1.8200892829
 O         -2.4745889803       -0.1685062923        2.9724199332
 O         -2.4042607933       -0.3013187021       -1.7400818344
 C         -2.5598202477       -1.8979848866        0.7010996721
 C         -1.4422796764       -2.4456001843       -0.1555325767
 C         -1.5865425030       -3.4651646573       -1.0849524311
 C         -0.4973580426       -3.8822170054       -1.8327606600
 C          0.7419578237       -3.2896886522       -1.6821102404
 C          0.8936054772       -2.2588274336       -0.7585208769
 C         -0.1872864610       -1.8717593159        0.0116455844
 H         -0.0613275939       -1.0849931900        0.7420075895
 N          2.1187436209       -1.5820532730       -0.6347964047
 S          2.4445304306       -0.6185983849        0.7037206038
 O          2.3729512066       -1.4033635580        1.9188702259
 O          1.6240424557        0.5647584256        0.6538941253
 C          4.1392246670       -0.1868864963        0.3585019538
 C          4.3894453979        0.8643859367       -0.5029144406
 C          5.7033134632        1.1915418069       -0.7978140820
 C          6.7397208563        0.4651404928       -0.2301051596
 C          6.4736134272       -0.5856093034        0.6348547141
 C          5.1614099264       -0.9180040671        0.9334504801
 H          4.9063617868       -1.7189481361        1.6086505567
 H          7.2813334916       -1.1455750424        1.0777591449
 H          7.7614454455        0.7220500675       -0.4608999612
 H          5.9135996315        2.0103789955       -1.4667218517
 H          3.5500660249        1.4037075001       -0.9107229650
 H          2.9187251446       -2.1267150662       -0.9236658378
 H          1.5815768547       -3.6047676657       -2.2821997514
 H         -0.6203045794       -4.6763879770       -2.5536466701
 H         -2.5513823866       -3.9192346249       -1.2406793669
 H         -2.3076068148       -2.1211787762        1.7526316306
 C         -3.9132247195       -2.5386493427        0.4368953748
 C         -5.1817688698       -1.7576269700        0.6050442596
 C         -4.7460896645       -2.1944089565       -0.7596609211
 H         -5.2989739029       -2.9876488319       -1.2414588185
 H         -4.3546641443       -1.4542575064       -1.4384657502
 H         -6.0288475285       -2.2481139332        1.0610622213
 H         -5.0915472620       -0.7115915904        0.8613599291
 H         -3.9424231274       -3.5718412750        0.7699077578
