  62
        -98.93536157
 C          2.2028169993        1.1030931039       -0.0131831440
 C          2.9073419825        0.4500774623        1.0285929773
 C          3.7645947940       -0.6929070837        0.6622385907
 C          3.8173518912       -1.0691439048       -0.6286207182
 C          4.6429846615       -2.1642291617       -1.2494788891
 C          6.1241494639       -1.7785055127       -1.3955904408
 C          6.7310943927       -1.0825183179       -0.1800985193
 H          7.7413547207       -0.7643897261       -0.4506258707
 H          6.1560546375       -0.1815283220        0.0410663650
 C          6.8334567634       -1.9408580428        1.0783878775
 H          7.4421964387       -2.8216840755        0.8624911990
 H          7.3598919777       -1.3497329156        1.8320200667
 C          5.5062821132       -2.4047688379        1.6822968939
 H          5.0871882137       -3.2345670054        1.1193930173
 H          5.7208325520       -2.7876344999        2.6843375475
 C          4.4629414293       -1.3048679826        1.8525238759
 H          4.9083286960       -0.4689733032        2.4038661387
 H          3.6615860669       -1.6816652108        2.4999422877
 H          6.6938563234       -2.6806734298       -1.6243064109
 H          6.2124420287       -1.0985754700       -2.2464960670
 H          4.5345583652       -3.0816035804       -0.6783670733
 H          4.2297648289       -2.3425921042       -2.2448432142
 O          3.1068954910       -0.4262725731       -1.5973206595
 C          2.2845720574        0.6561242585       -1.3312345033
 O          1.7056849384        1.1016310893       -2.3412245616
 O          2.8372541138        0.8190922771        2.2320907352
 C          1.3440321711        2.2914028387        0.3855102848
 C         -0.0768869122        1.8564514084        0.6369715559
 C         -0.7033455058        2.1107856211        1.8507663581
 C         -1.9991589175        1.6796859493        2.0777994882
 C         -2.6955010686        0.9912677117        1.1006969076
 C         -2.0757786316        0.7265584017       -0.1138145777
 C         -0.7775702951        1.1589209544       -0.3382539662
 H         -0.2977191477        0.9471022729       -1.2830402390
 N         -2.7762848453        0.0265182137       -1.1162192872
 S         -3.3623481994       -1.4945431070       -0.7003555389
 O         -2.5584117855       -2.1033738993        0.3353953988
 O         -3.4662446632       -2.2212605776       -1.9468824622
 C         -4.9999674301       -1.1584039574       -0.0870923495
 C         -5.8890581957       -0.5165101565       -0.9270477008
 C         -7.1677997702       -0.2463682702       -0.4666094857
 C         -7.5344019947       -0.6229804527        0.8170937751
 C         -6.6312828309       -1.2701475370        1.6465118120
 C         -5.3499595091       -1.5425393420        1.1925071378
 H         -4.6114548689       -2.0377783823        1.8027157045
 H         -6.9180324383       -1.5624269448        2.6439209990
 H         -8.5301130072       -0.4110671884        1.1733172295
 H         -7.8729624292        0.2564568885       -1.1086355677
 H         -5.5642154224       -0.2451495820       -1.9176364907
 H         -2.2614374682       -0.0302993925       -1.9843722900
 H         -3.7042923064        0.6526239445        1.2715183246
 H         -2.4723177710        1.8813857834        3.0265448644
 H         -0.1606057091        2.6331490160        2.6248622155
 H          1.7620646886        2.6216398823        1.3495291147
 C          1.4559438868        3.4612214461       -0.5831229781
 C          0.3294418070        3.9476353226       -1.4402959379
 C          0.7757947694        4.7601309642       -0.2645329189
 H          1.3090996980        5.6819294021       -0.4398922628
 H          0.1294156667        4.7785091880        0.6000362397
 H          0.5734974264        4.2890451233       -2.4347972889
 H         -0.6203524136        3.4407391641       -1.3777400370
 H          2.4474549747        3.5269130598       -1.0200517923
