  62
        -98.94585482
 C          1.0798412546        1.2767287755       -0.0574807715
 C          1.7687600872        0.5813744157        0.9709301551
 C          2.5892560907       -0.5637833761        0.5570343233
 C          2.6157281748       -0.9125545778       -0.7417316779
 C          3.4257438154       -2.0404392477       -1.3111027443
 C          4.8073432033       -1.5558828967       -1.7724631349
 C          5.5428486915       -0.7091714541       -0.7334386608
 H          6.5153231480       -0.4486505795       -1.1567972659
 H          4.9967221270        0.2253880673       -0.5856631020
 C          5.7435029131       -1.3998949314        0.6227674596
 H          5.6143565448       -2.4770904981        0.5117605222
 H          6.7702936274       -1.2289105831        0.9527621740
 C          4.8270989166       -0.8906757729        1.7368708566
 H          4.8814077322        0.1997015340        1.7853613184
 H          5.2010526801       -1.2795359519        2.6876116351
 C          3.3517399910       -1.2961276078        1.6262718651
 H          3.2805665717       -2.3767146809        1.4832948880
 H          2.8668986224       -1.0359497860        2.5720597186
 H          5.4113192031       -2.4282688623       -2.0287796153
 H          4.6790170539       -0.9547164789       -2.6757514002
 H          3.5348211459       -2.8186760507       -0.5579875212
 H          2.8877812035       -2.4505455390       -2.1679655720
 O          1.9315427298       -0.2378031414       -1.6986527660
 C          1.1602913198        0.8802314631       -1.3937518022
 O          0.6282363681        1.3980327827       -2.3941855672
 H         -1.4547054007        0.9710102861       -1.1589021549
 C         -1.9060842788        1.2784117275       -0.2281667475
 C         -1.1873407156        2.0430350816        0.6798552816
 C         -1.8070738233        2.4366208207        1.8606322644
 C         -3.1159948821        2.0772718635        2.1247177680
 C         -3.8235841363        1.3003179899        1.2257398349
 C         -3.2121263143        0.8962813445        0.0447033555
 N         -3.9002587232        0.0861708853       -0.8779413945
 S         -3.1395417190       -1.3095652297       -1.4068223349
 O         -2.1455874100       -1.0044637551       -2.4014668787
 O         -4.2244735411       -2.1674426531       -1.8354879432
 C         -2.3808737237       -1.9765080248        0.0626145870
 C         -1.0276488623       -1.8099255696        0.2706485213
 C         -0.4692195824       -2.2706939976        1.4523560534
 C         -1.2714080121       -2.8856755830        2.4006460691
 C         -2.6295149852       -3.0525163054        2.1742879699
 C         -3.1930523583       -2.5902266952        0.9967269645
 H         -4.2417251226       -2.7088558295        0.7773263023
 H         -3.2480797381       -3.5364227040        2.9126780557
 H         -0.8309960128       -3.2369371793        3.3202613839
 H          0.5855943072       -2.1308515138        1.6269614902
 H         -0.4340718314       -1.3252274269       -0.4888924407
 H         -4.8526480184       -0.1191370485       -0.6090728569
 H         -4.8413726619        1.0068159729        1.4324734489
 H         -3.5855652314        2.3925289798        3.0436142674
 H         -1.2505515288        3.0198603606        2.5786837971
 C          0.2372696599        2.4570069309        0.3905000488
 H          0.6826993555        2.7849187022        1.3402718770
 C          0.2428831802        3.6320242498       -0.5678495598
 C         -0.0180174464        5.0090069784       -0.0381039630
 C          1.3566263159        4.6316553769       -0.5008504541
 H          1.7285189727        5.0480926245       -1.4248329649
 H          2.1216025222        4.4771870852        0.2463267369
 H         -0.5957812652        5.6899447332       -0.6438245879
 H         -0.1810945838        5.1173332996        1.0231990532
 H         -0.1464717985        3.3866887142       -1.5475049312
 O          1.7026833861        0.9106534662        2.1850443940
