  62
        -98.93799839
 C          2.4278875539        0.3970024003        0.4687506219
 C          3.2203492211        0.3495922507       -0.7053522677
 C          4.3179752420       -0.6300381100       -0.6902042769
 C          4.4865009134       -1.4420321639        0.3677601792
 C          5.5401636569       -2.5063801549        0.5122124594
 C          6.8930895705       -1.9809073924        1.0115199961
 C          7.6925405583       -1.1690745349       -0.0084905864
 H          8.7003689661       -1.0516998607        0.3948262313
 H          7.7773207988       -1.7359140197       -0.9361325992
 C          7.1147265807        0.2220783102       -0.3040530698
 H          6.4111612033        0.4991180562        0.4845840740
 H          7.9189941921        0.9611849062       -0.2885528506
 C          6.4140148592        0.3430581505       -1.6573841022
 H          7.1402192823        0.1962319222       -2.4599209984
 H          6.0139176599        1.3562691550       -1.7468952596
 C          5.2562644146       -0.6432068975       -1.8593977987
 H          4.6916093694       -0.3327783531       -2.7418284064
 H          5.6430153770       -1.6481635002       -2.0263026210
 H          6.7245315912       -1.3773089175        1.9064535158
 H          7.4913784645       -2.8471293105        1.3033454604
 H          5.1586102684       -3.2233553510        1.2423458254
 H          5.6767663272       -3.0194856920       -0.4400808897
 O          3.6745948990       -1.3964789205        1.4581774725
 C          2.6509854182       -0.4694779009        1.5424281926
 O          2.0126291725       -0.5105130194        2.6145881518
 H         -1.0623180662        1.0552986564        1.9523742793
 C         -1.1253503601        0.7226393707        0.9245736819
 C         -0.0035582597        0.8047444446        0.1131497028
 C         -0.0953031426        0.3542137476       -1.2002769184
 C         -1.2860980731       -0.1574559685       -1.6824419025
 C         -2.4032814342       -0.2377475196       -0.8690370600
 C         -2.3208917408        0.2025690198        0.4446451155
 N         -3.4468184241        0.1054974346        1.2793669230
 S         -4.9034721368        0.7315898499        0.7266950401
 O         -4.6890975263        1.8218187408       -0.1962161997
 O         -5.6590213434        1.0383840828        1.9213332312
 C         -5.6725569543       -0.6384594661       -0.1098220647
 C         -6.0913062278       -0.4983104131       -1.4183955805
 C         -6.7012529903       -1.5738556475       -2.0453094905
 C         -6.8812902979       -2.7631254797       -1.3558346593
 C         -6.4566816121       -2.8867980052       -0.0411192795
 C         -5.8473102383       -1.8152662857        0.5917546579
 H         -5.5066700044       -1.8696880330        1.6123336699
 H         -6.5983248463       -3.8134206471        0.4915101143
 H         -7.3556542148       -3.5987734660       -1.8457751378
 H         -7.0325191542       -1.4796988739       -3.0669994302
 H         -5.9256343622        0.4437022895       -1.9165801245
 H         -3.2736156542        0.3857999942        2.2338602125
 H         -3.3322345305       -0.6377053538       -1.2414926008
 H         -1.3453555866       -0.5004073054       -2.7042829820
 H          0.7748225249        0.4159422673       -1.8360728084
 C          1.2800666420        1.3753726159        0.6584274774
 H          1.1617430476        1.4658794070        1.7501779856
 C          1.5907280536        2.7686100806        0.1269964112
 C          0.9061315785        3.3907084932       -1.0487925532
 C          0.6049149072        3.8809716559        0.3334606840
 H          0.9703360874        4.8507221398        0.6358745590
 H         -0.3562713365        3.6213143618        0.7531822235
 H          1.5030226765        4.0078551448       -1.7027303043
 H          0.1456536222        2.8239187578       -1.5619224284
 H          2.6378053905        3.0230531142        0.2568331421
 O          3.0401792067        1.0700111821       -1.7189271096
