  62
        -98.94490818
 C         -2.5646814366       -0.1085219017        0.0397216462
 C         -2.3830023123        0.8914930298        1.0232432831
 C         -2.1583598266        2.2538290087        0.5248758906
 C         -2.1455914320        2.4743072608       -0.8023251463
 C         -1.9340937067        3.8130941940       -1.4477205027
 C         -0.4578703849        4.0643774027       -1.7797496479
 C          0.5001822432        3.7992588801       -0.6180356603
 H          0.5327448542        2.7269283525       -0.4106492718
 H          1.5001648252        4.0818900612       -0.9555742394
 C          0.1695976330        4.5607626750        0.6728183227
 H         -0.4734761818        5.4131044388        0.4485592270
 H          1.0992334352        4.9543773497        1.0894621390
 C         -0.4781796928        3.7095734798        1.7671976068
 H          0.0946752775        2.7860077459        1.8954767631
 H         -0.4216571351        4.2636801833        2.7085173269
 C         -1.9500880914        3.3387126683        1.5429578009
 H         -2.3428786658        2.9440111732        2.4848504710
 H         -2.5199915929        4.2328872727        1.2807839310
 H         -0.3543543971        5.1004837853       -2.1090841183
 H         -0.1729293955        3.4117760890       -2.6079945740
 H         -2.5122231652        3.8377320938       -2.3734446363
 H         -2.3033181457        4.5895792074       -0.7801800370
 O         -2.3166117741        1.4873684317       -1.7185051749
 C         -2.4941546306        0.1695302457       -1.3248842643
 O         -2.5903730602       -0.6392234040       -2.2681505848
 H         -0.1969730945       -0.8263826441        0.3898935836
 C         -0.3228823267       -1.8421836775        0.0454752738
 C         -1.5959014135       -2.3964516197        0.0135014967
 C         -1.7348823496       -3.7107309539       -0.4133419654
 C         -0.6235223910       -4.4382342750       -0.8050651139
 C          0.6392855801       -3.8768873443       -0.7842525708
 C          0.7883618192       -2.5584028997       -0.3638054744
 N          2.0490134126       -1.9402995263       -0.3875452514
 S          2.3219593426       -0.5027277894        0.4401963623
 O          2.0495449348       -0.6692705656        1.8519973021
 O          1.6238633878        0.5638498039       -0.2306272687
 C          4.0771694716       -0.3364979955        0.1787729728
 C          4.9529771283       -0.8362547813        1.1240962278
 C          6.3162986771       -0.7340320578        0.8961474168
 C          6.7783407630       -0.1380960022       -0.2677376562
 C          5.8874613604        0.3617930093       -1.2059286498
 C          4.5230623201        0.2625076435       -0.9838308734
 H          3.7921312485        0.6423913329       -1.6788562785
 H          6.2497952786        0.8279590757       -2.1079124086
 H          7.8395355717       -0.0594957424       -0.4433720665
 H          7.0110692924       -1.1177497389        1.6256830585
 H          4.5475813446       -1.2802857299        2.0190781021
 H          2.8236118002       -2.5849703783       -0.3233615099
 H          1.5016406203       -4.4442055719       -1.0984389175
 H         -0.7442724192       -5.4594376856       -1.1334673002
 H         -2.7120716929       -4.1645279794       -0.4407357536
 C         -2.7541425931       -1.5475062717        0.4806981477
 H         -2.7270616393       -1.5198031840        1.5816662983
 C         -4.1037305368       -2.0748911712        0.0395406031
 C         -4.8372064332       -3.0784954657        0.8769055254
 C         -5.3240224043       -1.6634039651        0.8058308951
 H         -6.2302358650       -1.4529208778        0.2582599509
 H         -5.1750661868       -1.0256782535        1.6652312389
 H         -4.3672994911       -3.4047496922        1.7925642133
 H         -5.4147814558       -3.8421622259        0.3782323761
 H         -4.1886477610       -2.1429676610       -1.0390567859
 O         -2.4190679064        0.6554025361        2.2633964874
