  62
        -98.93371827
 C         -1.7343960288       -1.0833577803        0.6250239109
 C         -2.0605414892        0.2921441096        0.7623470005
 C         -3.4636601892        0.6624673492        0.5416517802
 C         -4.3613989590       -0.2945723010        0.2476516703
 C         -5.8432373990       -0.1138410514        0.0500210801
 C         -6.2702962090        0.7289999681       -1.1670575102
 C         -6.5025314394        2.2130786082       -0.8577265106
 H         -7.3812695994        2.5529443178       -1.4096989308
 H         -6.7389669496        2.3179314084        0.2018767394
 C         -5.3536957396        3.1585175483       -1.2214621107
 H         -5.3642200195        3.3333741281       -2.2997620807
 H         -5.5420792799        4.1163916684       -0.7317883310
 C         -3.9500159395        2.6797871088       -0.8495995704
 H         -3.2599711497        3.5159710989       -0.9780476005
 H         -3.6283186893        1.9050191587       -1.5497938601
 C         -3.8174555396        2.1206844592        0.5803507198
 H         -3.0027578398        2.6248799595        1.1035500698
 H         -4.7372814097        2.2773362691        1.1419082296
 H         -5.5355778089        0.6152668281       -1.9637729000
 H         -7.2084367589        0.3062195678       -1.5302026702
 H         -6.2468658487       -1.1228809616       -0.0560697797
 H         -6.2670299892        0.3209154687        0.9581530599
 O         -4.0123900787       -1.6030056310        0.1320130907
 C         -2.7021755686       -2.0312269806        0.2920923910
 O         -2.5623765283       -3.2579518307        0.1148461414
 O         -1.2130730094        1.1717298399        1.0717222204
 C         -0.2815038588       -1.4543090299        0.8583068912
 C          0.5020643614       -1.5681668101       -0.4277976487
 C          0.1271225017       -2.4446390204       -1.4402599285
 C          0.8904868019       -2.5500826706       -2.5885114084
 C          2.0503952218       -1.8096509503       -2.7374811785
 C          2.4362736314       -0.9350158900       -1.7291209086
 C          1.6505755313       -0.8081502599       -0.5923613388
 H          1.9439121910       -0.1113612396        0.1775192011
 N          3.6037149413       -0.1680244397       -1.8435664687
 S          4.5736771710        0.0779415208       -0.5000836286
 O          5.8804643410        0.3720889910       -1.0480578385
 O          4.5026091412       -1.0351165789        0.4167597016
 C          3.9218072406        1.5500903609        0.2577956009
 C          3.5675485304        1.5346804712        1.5919906809
 C          3.0750884801        2.6942628412        2.1691310105
 C          2.9485606599        3.8439107510        1.4053034002
 C          3.3136012801        3.8447020607        0.0674842602
 C          3.8064963104        2.6884530307       -0.5149258694
 H          4.1038821006        2.6509295205       -1.5496292094
 H          3.2129133099        4.7418564005       -0.5219161000
 H          2.5614989896        4.7438231010        1.8565738599
 H          2.7883180300        2.6945450814        3.2086078605
 H          3.6781068606        0.6174003913        2.1495218011
 H          4.1491662214       -0.3430194898       -2.6748523286
 H          2.6532779619       -1.9078107004       -3.6276593884
 H          0.5872453322       -3.2291164608       -3.3713712083
 H         -0.7641502181       -3.0405166306       -1.3170622285
 H          0.1402884510       -0.6103188797        1.4212954210
 C         -0.0892612786       -2.7166896997        1.6788353115
 C          1.2616288514       -2.9934460192        2.2659140318
 C          0.1200854812       -2.6094855892        3.1579229415
 H         -0.3128202487       -3.3657413492        3.7955004917
 H          0.1218823309       -1.6205065091        3.5924977913
 H          1.6102977016       -4.0147553791        2.2893427421
 H          2.0469847613       -2.2733883791        2.0864634317
 H         -0.6601854383       -3.5592550399        1.3112257017
