  62
        -98.93838098
 C         -2.3222392875       -1.2927737849        0.2186870769
 C         -2.2792065763       -0.0835487178       -0.5120227475
 C         -3.1444176652        1.0163407049       -0.0356043260
 C         -3.9222700717        0.8142048536        1.0437499610
 C         -4.9031455889        1.7607457995        1.6835307175
 C         -6.2044033168        1.9037213674        0.8786905187
 C         -6.0126114947        2.0754446440       -0.6255107640
 H         -5.4645062034        1.2169238362       -1.0174251690
 H         -7.0023956861        2.0681568573       -1.0892895194
 C         -5.3083656008        3.3626097947       -1.0480082553
 H         -5.3351502447        3.4038131147       -2.1398620427
 H         -5.8695511335        4.2199255219       -0.6699880772
 C         -3.8495223966        3.5028733967       -0.6062690574
 H         -3.4085692555        4.3173876369       -1.1885625363
 H         -3.7783372830        3.7988896956        0.4369846740
 C         -2.9865473585        2.2710155144       -0.8607710656
 H         -3.0983804259        1.9644015630       -1.9072645576
 H         -1.9313635687        2.5557238358       -0.7570698466
 H         -6.8009610212        1.0022904288        1.0378875496
 H         -6.7627554943        2.7528516101        1.2762085290
 H         -5.1447861863        1.3434384002        2.6635482146
 H         -4.4378326998        2.7290387249        1.8423817007
 O         -3.9398143561       -0.3754997938        1.7105608188
 C         -3.1403553114       -1.4360941383        1.3417616703
 O         -3.2464333328       -2.4409791546        2.0728328395
 O         -1.5611530380        0.0948036768       -1.5327114820
 C         -1.4270417420       -2.4742649478       -0.1261196736
 C         -0.0149091474       -2.0750416388        0.2260489382
 C          0.4362534590       -2.2393868945        1.5326516416
 C          1.6867521089       -1.7865658425        1.9095648893
 C          2.5060435750       -1.1440102813        0.9971675071
 C          2.0586683273       -0.9637639191       -0.3039585399
 C          0.8173047547       -1.4502454314       -0.6898317171
 H          0.4775402879       -1.2892757393       -1.7005112951
 N          2.8720346078       -0.2768902568       -1.2269586890
 S          3.3667046083        1.2660832015       -0.7733547917
 O          2.4422942155        1.8752913304        0.1555566342
 O          3.5982423759        1.9752354343       -2.0133291520
 C          4.9342371945        0.9815973736        0.0241422274
 C          5.1459836676        1.4370094180        1.3105970502
 C          6.3764679247        1.2108233457        1.9078966417
 C          7.3683896586        0.5379415734        1.2111534571
 C          7.1407710675        0.0893239668       -0.0814991880
 C          5.9134251463        0.3129459009       -0.6844582632
 H          5.6964098186       -0.0154897435       -1.6870509098
 H          7.9147348555       -0.4332561535       -0.6200469845
 H          8.3243711428        0.3622812041        1.6786031576
 H          6.5546106437        1.5594144141        2.9125312578
 H          4.3424647159        1.9498745241        1.8150747751
 H          2.4665008170       -0.2424067935       -2.1523720722
 H          3.4741830702       -0.7698857533        1.2880792442
 H          2.0241082787       -1.9252747263        2.9255136230
 H         -0.2180730546       -2.7085751911        2.2543831006
 H         -1.7314056903       -3.2865475013        0.5467631885
 C         -1.5995619285       -2.9377519271       -1.5569769057
 C         -1.0580897849       -4.2757057363       -1.9594098802
 C         -2.5379944463       -4.0678179923       -1.8505818814
 H         -3.1225008376       -4.0280331318       -2.7575797007
 H         -3.0581361419       -4.5152500508       -1.0161882865
 H         -0.6247023034       -4.3831161473       -2.9419298315
 H         -0.5720755112       -4.8645655086       -1.1963462260
 H         -1.5570231877       -2.1337796408       -2.2805171051
