  62
        -98.94081070
 C         -2.5915809100       -1.3206478013        0.2270371105
 C         -2.4088670717       -0.2284660834       -0.6586811913
 C         -3.5316606422        0.7213319602       -0.7455167367
 C         -4.6436500074        0.5078860891       -0.0208312406
 C         -5.8349613290        1.4193468240        0.0191814242
 C         -5.7054378995        2.4509304924        1.1485480143
 C         -4.3577431269        3.1722739401        1.1752919719
 H         -4.3930368864        3.8973368549        1.9912274210
 H         -3.5710396689        2.4540609384        1.4183326278
 C         -3.9965740356        3.8921476177       -0.1315253920
 H         -3.6081882098        4.8836660935        0.1104874827
 H         -4.8927313032        4.0340591843       -0.7367789188
 C         -2.9265410921        3.1893675849       -0.9695586064
 H         -2.0576614435        2.9633086306       -0.3451529703
 H         -2.5941881141        3.8823124079       -1.7475119591
 C         -3.3672655371        1.8965588940       -1.6676887726
 H         -4.2849454922        2.0769835580       -2.2315951291
 H         -2.5787638520        1.6179023645       -2.3733531647
 H         -6.5088416688        3.1819650493        1.0419811383
 H         -5.8371231900        1.9371185235        2.1035266892
 H         -5.9322195460        1.9244199032       -0.9397904670
 H         -6.7257379321        0.8133977248        0.1931880988
 O         -4.7875182836       -0.5556000250        0.8096366727
 C         -3.7645612913       -1.4735555151        0.9737854912
 O         -4.0167344981       -2.3720298085        1.8008082627
 O         -1.3781037776       -0.0409939870       -1.3562306784
 C         -1.5099902928       -2.3604552357        0.4770923853
 C         -0.1999656296       -1.6668619795        0.7531713834
 C          0.0135504221       -1.0894048407        2.0011238201
 C          1.1846015443       -0.4064486862        2.2705283263
 C          2.1611392414       -0.2755672776        1.2983925308
 C          1.9470061589       -0.8289199412        0.0435517936
 C          0.7804204978       -1.5369551469       -0.2163365933
 H          0.6168524155       -1.9513030778       -1.1988725472
 N          2.9245521750       -0.6958413298       -0.9550835748
 S          3.7226497997        0.7669737071       -1.1393978970
 O          2.9122530188        1.8927525792       -0.7376019334
 O          4.1906361808        0.7666250631       -2.5087725506
 C          5.1283747740        0.6095814060       -0.0548109895
 C          5.9093020807       -0.5250362998       -0.1577138772
 C          7.0139253133       -0.6549198619        0.6686279794
 C          7.3202774855        0.3475174777        1.5768840498
 C          6.5288825401        1.4822145401        1.6659179872
 C          5.4216957241        1.6174673925        0.8426354842
 H          4.7747442286        2.4796867486        0.8810071587
 H          6.7683259909        2.2610745237        2.3720468586
 H          8.1807687668        0.2440268905        2.2188873226
 H          7.6316168137       -1.5360551212        0.6023785312
 H          5.6394554713       -1.2794348616       -0.8775824860
 H          2.6372077777       -1.0629705017       -1.8508718881
 H          3.0692444273        0.2699059046        1.4965825831
 H          1.3386247754        0.0333681678        3.2443277800
 H         -0.7574255992       -1.1748517194        2.7550641967
 H         -1.8222277795       -2.8733691758        1.4006852627
 C         -1.3997946241       -3.4348398899       -0.5947442223
 C         -2.6350685785       -4.0124923026       -1.2170174700
 C         -1.6952020709       -3.1884471945       -2.0423230984
 H         -1.0860388741       -3.6931649617       -2.7785678641
 H         -1.9997308857       -2.1968477009       -2.3371980720
 H         -2.6772075678       -5.0772668468       -1.3895785569
 H         -3.5823414551       -3.5770939913       -0.9332500673
 H         -0.5979027599       -4.1339783512       -0.3766911511
