  62
        -98.93400526
 C          2.1911732204        0.9209069393        0.6251478393
 C          3.3052659903        0.8569160683       -0.2441327008
 C          4.2798332101       -0.2234026717        0.0081945800
 C          4.0616236801       -1.0994571607        1.0053247009
 C          4.8840010100       -2.2661863704        1.5125713618
 C          6.0573532398       -2.8083218114        0.7005468121
 C          5.6653940794       -3.5023517125       -0.6037354672
 H          6.5791607693       -3.7443279532       -1.1507116371
 H          5.1651279493       -4.4426736322       -0.3585853362
 C          4.7330462895       -2.7115958832       -1.5181521078
 H          4.5217548792       -3.3298516539       -2.3949275072
 H          3.7809664696       -2.5386283125       -1.0115501078
 C          5.2817638696       -1.3754751237       -2.0138843091
 H          4.5863984896       -0.9931306243       -2.7658932193
 H          6.2472942895       -1.5319122444       -2.4988007591
 C          5.4439585300       -0.2876671328       -0.9391433701
 H          6.3761952000       -0.4069403424       -0.3929044901
 H          5.4805296601        0.6815435768       -1.4446103710
 H          6.7800629099       -2.0198990317        0.5126853413
 H          6.5551317397       -3.5497972609        1.3313980128
 H          5.2561367002       -1.9581498496        2.4960370015
 H          4.1696061999       -3.0753769501        1.6956133327
 O          2.9620428303       -1.0064653098        1.8118739809
 C          2.0181872504       -0.0110034398        1.6510561102
 O          1.0871282205       -0.0548545288        2.4820873603
 H         -1.4248531295        1.1000763001        0.7651808496
 C         -1.1399259596        1.2053428591       -0.2714031205
 C          0.1380405104        1.6398962185       -0.5955754411
 C          0.4910978802        1.7445326372       -1.9370487612
 C         -0.4189906300        1.4170298365       -2.9251418408
 C         -1.6910542000        0.9819746870       -2.5990308402
 C         -2.0551251298        0.8763055983       -1.2613393001
 N         -3.3583062699        0.4800761289       -0.9112741395
 S         -3.6035836698       -0.4405927198        0.4818034114
 O         -3.5265914295        0.4242821113        1.6317278306
 O         -2.7343282301       -1.5968028700        0.4748077023
 C         -5.2980435100       -0.9331403397        0.2221504921
 C         -5.5806240703       -2.2029577501       -0.2436690967
 C         -6.9023152404       -2.5558649601       -0.4685716762
 C         -7.9126671002       -1.6368690896       -0.2289208169
 C         -7.6135380699       -0.3658342893        0.2393071219
 C         -6.2947923898       -0.0074339393        0.4681670314
 H         -6.0143359495        0.9639928110        0.8403692804
 H         -8.4017685797        0.3451842511        0.4270906414
 H         -8.9399592902       -1.9137237596       -0.4057319765
 H         -7.1379235906       -3.5441533303       -0.8291394552
 H         -4.7624893204       -2.8854806904       -0.4093959762
 H         -3.8636515001        0.0858876983       -1.6938935791
 H         -2.3992726302        0.7270439464       -3.3728971399
 H         -0.1326082201        1.4968558855       -3.9630085909
 H          1.4902106302        2.0585247568       -2.1946941917
 C          1.1065816206        1.9813166594        0.5121698585
 H          0.5510573507        1.9317574403        1.4592276786
 C          1.6595399409        3.3846599791        0.3560711771
 C          0.7774535011        4.5477009196        0.6916323661
 C          1.9337482812        4.2021582502        1.5803850463
 H          2.7964882413        4.8512149100        1.5833643456
 H          1.7233786912        3.7510490511        2.5397476767
 H          0.8437580912        5.4369472190        0.0840571353
 H         -0.2183248789        4.3303418601        1.0490438165
 H          2.3440768608        3.4909801982       -0.4743649231
 O          3.5126067903        1.6617646574       -1.1895814416
