  62
        -98.93872452
 C          1.9642021600       -0.9228318133        0.4085387135
 C          3.0410616073       -1.1549390233       -0.4817984941
 C          4.3197687174       -0.4799280555       -0.1894861191
 C          4.3950341455        0.3174651511        0.8921573481
 C          5.5652389120        1.1343580841        1.3721874765
 C          5.7845514370        2.4057201569        0.5371416791
 C          5.6921891853        2.2050553725       -0.9730942252
 H          4.7093961313        1.7999625227       -1.2213985344
 H          5.7640446743        3.1895062029       -1.4431265421
 C          6.7771019368        1.3176360939       -1.5788367051
 H          6.6489571080        1.3457087101       -2.6639470822
 H          7.7568078831        1.7429438840       -1.3499265392
 C          6.7671304858       -0.1481526928       -1.1386943554
 H          7.2047344659       -0.2656560570       -0.1509375805
 H          7.4111783556       -0.6991487975       -1.8302573360
 C          5.3979524610       -0.8183877379       -1.1906204809
 H          4.9553877439       -0.6544225898       -2.1797595731
 H          5.5376288843       -1.9035150852       -1.1151132999
 H          5.0215516855        3.1339877580        0.8232453860
 H          6.7604249160        2.8220652562        0.7929881714
 H          5.3407714830        1.4285581866        2.3999465229
 H          6.4637398404        0.5247529580        1.3915084313
 O          3.3299074103        0.5189383246        1.7181326879
 C          2.0999729951       -0.0775148980        1.5087561480
 O          1.2447356846        0.2195612298        2.3662975392
 H         -1.0329137683        0.0566688151        1.4759466247
 C         -1.1204006460        0.1792084249        0.4077564805
 C         -0.3298878592       -0.5860579636       -0.4371102641
 C         -0.4337401759       -0.3858000575       -1.8099330719
 C         -1.3045187543        0.5587225981       -2.3230062546
 C         -2.0892007967        1.3227343178       -1.4776384303
 C         -1.9861392782        1.1346468424       -0.1054864640
 N         -2.7909528128        1.9022423087        0.7574340449
 S         -4.4347856733        1.8881487350        0.4374086523
 O         -4.7312108356        2.8407080663       -0.6036951203
 O         -5.0818072021        2.1231085557        1.7091287368
 C         -4.7626346708        0.2336681679       -0.1458437292
 C         -5.1622301167        0.0276952635       -1.4502226109
 C         -5.3518831611       -1.2708215108       -1.8956417085
 C         -5.1333116112       -2.3348449733       -1.0348978892
 C         -4.7342584386       -2.1112328387        0.2740150974
 C         -4.5445013441       -0.8156631119        0.7250655917
 H         -4.2381106436       -0.6071489988        1.7376465418
 H         -4.5648282943       -2.9410666873        0.9411327839
 H         -5.2747234102       -3.3454864697       -1.3840473231
 H         -5.6636149324       -1.4479113594       -2.9123298527
 H         -5.3166531684        0.8835409249       -2.0866849923
 H         -2.6074346087        1.7285154843        1.7349806320
 H         -2.7735300245        2.0652340544       -1.8554408408
 H         -1.3743957293        0.7016079173       -3.3904869182
 H          0.1865842921       -0.9736200489       -2.4713863824
 C          0.6410763894       -1.6062288412        0.1044984648
 H          0.8654870100       -2.3165352149       -0.7021647784
 C          0.0882688847       -2.3728284155        1.2893252256
 C         -1.0719874902       -3.2978199942        1.0778548219
 C          0.2889938336       -3.8553630435        1.3646489926
 H          0.4724833766       -4.3010632401        2.3309423710
 H          0.8283621988       -4.3287170209        0.5574400877
 H         -1.8240494286       -3.3613935018        1.8490322334
 H         -1.4590304708       -3.3883343737        0.0743503713
 H          0.1313448180       -1.8219171611        2.2202279969
 O          2.9438677227       -1.9031400543       -1.4912828997
