  62
        -98.94425666
 C          1.3860586804        1.5901541728       -0.9240000663
 C          2.6061771399        1.3735145001       -0.2323383866
 C          3.3315060238        0.1419622982       -0.5534336539
 C          2.8406537421       -0.6931353787       -1.4863253331
 C          3.4404028872       -2.0071536311       -1.9053666478
 C          3.0381714796       -3.1702872082       -0.9877394589
 C          3.7272630796       -3.1844436178        0.3774760357
 H          3.5449505384       -4.1672373281        0.8171016483
 H          4.8050315809       -3.0797900446        0.2441849079
 C          3.2171116373       -2.1115563913        1.3501677664
 H          2.2448810037       -1.7454540821        1.0089985889
 H          3.0534418128       -2.5620963532        2.3326297853
 C          4.1661951205       -0.9286687083        1.5491916896
 H          5.0822866935       -1.2741598788        2.0345840519
 H          3.6799430425       -0.2113056354        2.2157494925
 C          4.5460747804       -0.1913691982        0.2585390800
 H          5.0324205198        0.7483672920        0.5323814068
 H          5.2435632621       -0.7904207156       -0.3265206764
 H          1.9550643498       -3.1407213375       -0.8408825260
 H          3.2826443377       -4.1001680564       -1.5071168383
 H          3.0691934235       -2.2154795442       -2.9111526207
 H          4.5271451557       -1.9261406329       -1.9435418726
 O          1.7090213742       -0.4190003588       -2.1794798692
 C          0.9175659697        0.6843204178       -1.8750385687
 O         -0.1347895270        0.7294422367       -2.5395565016
 H         -0.7990202465        0.5240237050        0.0226161470
 C         -0.7629281991        1.1452631512        0.9009647739
 C         -0.1214044669        2.3742584499        0.8351052506
 C         -0.0754616041        3.1667364032        1.9740710954
 C         -0.6371255989        2.7181250331        3.1576933546
 C         -1.2304827672        1.4713778837        3.2312657812
 C         -1.2881165729        0.6724152423        2.0920962324
 N         -1.8800722479       -0.5922307258        2.1369894328
 S         -1.6164133025       -1.8139832977        1.0240812900
 O         -1.9004997493       -3.0227496329        1.7703561571
 O         -0.3096893901       -1.7381221050        0.4180096133
 C         -2.9271198498       -1.5596369597       -0.1548565918
 C         -2.6946831696       -0.9928426249       -1.3906092189
 C         -3.7691916520       -0.7921074501       -2.2452775696
 C         -5.0470148981       -1.1590622203       -1.8562004206
 C         -5.2635771288       -1.7333906174       -0.6120043841
 C         -4.1966066423       -1.9342086559        0.2464655564
 H         -4.3163901431       -2.3884290329        1.2161021991
 H         -6.2575638833       -2.0225555123       -0.3108829902
 H         -5.8765226842       -0.9984838709       -2.5266957058
 H         -3.5894353622       -0.3444420763       -3.2096824679
 H         -1.6971638454       -0.7058592997       -1.6870344524
 H         -2.1080226373       -0.9410098144        3.0546531260
 H         -1.6372793309        1.1100868357        4.1633054318
 H         -0.5918163482        3.3375997672        4.0406716477
 H          0.4281884130        4.1213945369        1.9380693184
 C          0.5620508033        2.7767490770       -0.4496059090
 H          1.2942667468        3.5616934415       -0.1993905745
 C         -0.3894999469        3.3508842589       -1.4846890091
 C         -1.8667595160        3.1129025872       -1.4609682460
 C         -1.3231320762        4.4622258223       -1.1046179898
 H         -1.4638329381        5.2778771245       -1.7973123127
 H         -1.3527517006        4.7523613814       -0.0651838426
 H         -2.3646312815        2.9830112910       -2.4092458603
 H         -2.2726994181        2.4989330639       -0.6718673892
 H          0.0697265291        3.4121731557       -2.4654796419
 O          3.0616757567        2.1784235699        0.6250664437
