  62
        -98.94414892
 C          1.8533593788        1.3464711458        0.1238974459
 C          2.0397440495        0.3679155136       -0.8824274992
 C          3.3930995812       -0.1997787997       -0.9864956568
 C          4.3587882401        0.2190967949       -0.1497672392
 C          5.7580114628       -0.3211588501       -0.1090966815
 C          5.8738827756       -1.4897595146        0.8796254330
 C          4.7936494455       -2.5573364381        0.7045958988
 H          3.8220470622       -2.1275012027        0.9598897031
 H          4.9952278739       -3.3463173602        1.4324822192
 C          4.7243999672       -3.1661460191       -0.7029628243
 H          4.6298213503       -4.2502768769       -0.6110291451
 H          5.6529992586       -2.9668386214       -1.2390739681
 C          3.5404395758       -2.6857995045       -1.5442855793
 H          2.6161363699       -2.7997808410       -0.9717122490
 H          3.4629196066       -3.3333219062       -2.4218945090
 C          3.6231224924       -1.2391787496       -2.0478599305
 H          2.8269791983       -1.0984695018       -2.7846299585
 H          4.5820088334       -1.0772766124       -2.5440119152
 H          5.8008201109       -1.0931904981        1.8949802028
 H          6.8592706857       -1.9444485343        0.7628278601
 H          6.4265298116        0.4801551751        0.2101359770
 H          6.0468078032       -0.6457836199       -1.1068620565
 O          4.1482238370        1.1645037655        0.7998297145
 C          2.9027778282        1.7436978902        0.9608946505
 O          2.8531207168        2.5977780178        1.8683547175
 O          1.1387136433       -0.0352164860       -1.6672669176
 C          0.5305841144        2.0557942181        0.3735003724
 C         -0.4301169435        1.2015472197        1.1646611163
 C         -0.9507290267        1.6408893152        2.3759158494
 C         -1.8612874781        0.8676936179        3.0760906342
 C         -2.2685200008       -0.3602529588        2.5852544383
 C         -1.7457193415       -0.8103831141        1.3805786404
 C         -0.8423001472       -0.0299785177        0.6757201597
 H         -0.4471414072       -0.3842583508       -0.2649631301
 N         -2.1658083648       -2.0578525260        0.8606157137
 S         -3.7620176680       -2.0799621807        0.3456706167
 O         -4.6226967540       -1.9945710045        1.4979348393
 O         -3.9002519541       -3.2646100733       -0.4704745225
 C         -3.9201324885       -0.6095767612       -0.6503814366
 C         -4.3265475329        0.5685380960       -0.0570724543
 C         -4.3605809873        1.7237624057       -0.8208844152
 C         -3.9868301463        1.6808052317       -2.1551098548
 C         -3.5766342860        0.4903990492       -2.7350718143
 C         -3.5361664305       -0.6669439169       -1.9750149033
 H         -3.2249901367       -1.6129444435       -2.3890015551
 H         -3.2815819825        0.4614081416       -3.7718353646
 H         -4.0172973356        2.5803162344       -2.7501626412
 H         -4.6731464284        2.6526764596       -0.3719611202
 H         -4.6115948284        0.5582382469        0.9820960457
 H         -1.5777637704       -2.3704826956        0.0995158161
 H         -2.9879660214       -0.9699913494        3.1075672488
 H         -2.2572560271        1.2240181524        4.0148719942
 H         -0.6301399980        2.5928791102        2.7731300189
 H          0.7814364305        2.9326193689        0.9848244524
 C         -0.1351841346        2.5378294481       -0.9023788221
 C         -1.0595704525        3.7140933546       -0.8379107827
 C          0.2816606157        3.8494038296       -1.4929353280
 H          0.3286126669        3.9378246523       -2.5678036890
 H          1.0498052651        4.4072253946       -0.9766101991
 H         -1.9381839286        3.7095267547       -1.4629896708
 H         -1.2024712400        4.1862519330        0.1220692526
 H         -0.3818980247        1.7382902591       -1.5881998869
