  62
        -98.94657785
 C          1.8554482950        1.2110602411        0.3826917317
 C          0.6036573946        1.2318611063        1.0462969008
 C         -0.2408693901        2.4081346801        0.7893744307
 C          0.1644807046        3.3422887188       -0.0876591785
 C         -0.6293550398        4.5513263624       -0.4882974585
 C         -1.5029445301        4.2700458169       -1.7183453593
 C         -2.3449300857        2.9979065705       -1.6113163305
 H         -2.9583694753        2.9398022336       -2.5138977910
 H         -1.6903701596        2.1220162376       -1.6210966705
 C         -3.2511053269        2.9357961538       -0.3739558713
 H         -4.2345585683        2.5742659183       -0.6820166222
 H         -3.3870024429        3.9362468442        0.0394613391
 C         -2.7500699919        1.9911118711        0.7195573586
 H         -3.5681991932        1.8120648643        1.4222557480
 H         -2.4826878157        1.0317230702        0.2691641084
 C         -1.5464515603        2.4876996554        1.5288969898
 H         -1.7292995161        3.5050473361        1.8811218902
 H         -1.4396762838        1.8329211545        2.3985008995
 H         -0.8529892999        4.1749591344       -2.5914173289
 H         -2.1597448262        5.1281814498       -1.8756695294
 H         -1.2523723990        4.8625494447        0.3480688512
 H          0.0689086339        5.3551955895       -0.7286686076
 O          1.3510230848        3.2689833639       -0.7433269277
 C          2.2165049000        2.2127309200       -0.5229695875
 O          3.2768961008        2.2790483357       -1.1798382367
 H          0.5009997050       -1.1100238328        0.1168975695
 C          1.2810486036       -1.5459793259       -0.4835272901
 C          2.5737648056       -1.0533123016       -0.3897712389
 C          3.5680265337       -1.6344695056       -1.1676684584
 C          3.2663601498       -2.6742604938       -2.0295117992
 C          1.9678321278       -3.1359794181       -2.1495302104
 C          0.9673532398       -2.5605174941       -1.3743227908
 N         -0.3623396321       -2.9983444283       -1.4627192520
 S         -1.6338506374       -1.9129581428       -1.3439888125
 O         -2.6666223092       -2.4609163678       -2.2017101935
 O         -1.2201063913       -0.5640665044       -1.6563774615
 C         -2.2074097791       -2.0216936711        0.3392843271
 C         -3.4352722468       -1.4464340658        0.6048076164
 C         -3.9333454179       -1.4838644243        1.8963575960
 C         -3.1976417714       -2.0965714180        2.8986983863
 C         -1.9741641137       -2.6800900032        2.6136536269
 C         -1.4700917126       -2.6466277348        1.3223401273
 H         -0.5193524744       -3.0926657888        1.0815771878
 H         -1.4032079464       -3.1577649061        3.3936448071
 H         -3.5807680822       -2.1198840568        3.9068012860
 H         -4.8881564661       -1.0333964602        2.1155524956
 H         -3.9764578042       -0.9855136831       -0.2066686937
 H         -0.5407923046       -3.6896584271       -2.1759457425
 H          1.7269549849       -3.9302594267       -2.8397303909
 H          4.0465798683       -3.1182969770       -2.6289933788
 H          4.5772991553       -1.2546124900       -1.1091216075
 C          2.8779173600        0.0960569666        0.5415758119
 H          3.8408534121        0.5271468425        0.2337662128
 C          3.0103273167       -0.4037810847        1.9678721518
 C          4.2912540636       -1.0472879805        2.4019492124
 C          3.9235324091        0.3122205508        2.9148765128
 H          3.6181938688        0.4145415917        3.9451586626
 H          4.4669294632        1.1654441287        2.5348025636
 H          5.0902629238       -1.1149173636        1.6793617830
 H          4.2416521794       -1.8837341106        3.0818070819
 H          2.0844629047       -0.7946532208        2.3681845109
 O          0.1873883000        0.3314344877        1.8234869100
