  62
        -98.94046037
 C          1.7913747998        0.7830307500       -0.4089620700
 C          3.1088554698        1.2855273499       -0.5604656103
 C          4.1306123698        0.7107387703        0.3242067399
 C          3.7652199299       -0.2045814493        1.2399471203
 C          4.7073338099       -0.9076250189        2.1727091905
 C          5.2281754999       -2.2146140892        1.5585730810
 C          5.7565374998       -2.0601391698        0.1324202310
 H          6.1241674998       -3.0379655599       -0.1860470987
 H          4.9275357398       -1.7980650000       -0.5289793391
 C          6.8740516698       -1.0190541598       -0.0215584995
 H          7.3126479099       -0.7991446094        0.9525002903
 H          7.6647258398       -1.4429629401       -0.6442230394
 C          6.4361745298        0.2875970799       -0.6859860301
 H          5.9140438997        0.0667939795       -1.6205637700
 H          7.3339496397        0.8570356698       -0.9407931504
 C          5.5420768298        1.2002788303        0.1627702196
 H          6.0063015298        1.3666830707        1.1372166195
 H          5.4675817198        2.1635105500       -0.3507757308
 H          6.0192507899       -2.6058906289        2.2008428012
 H          4.4119249099       -2.9404971792        1.5448119714
 H          5.5400370299       -0.2463760488        2.4051183002
 H          4.1705969600       -1.1378095085        3.0946921506
 O          2.4851884299       -0.6254101893        1.3916163205
 C          1.4638256198       -0.1487293396        0.5773394504
 O          0.3466064198       -0.6250453695        0.8435327006
 H         -1.9567630103        0.7645046194       -1.7392947598
 C         -1.7880327103        1.3779075398       -0.8679282401
 C         -0.5000395702        1.7510177099       -0.5166195103
 C         -0.3278313602        2.5360793504        0.6212349793
 C         -1.4062115202        2.9094929607        1.3987284092
 C         -2.6902668102        2.5291920105        1.0476138195
 C         -2.8763814102        1.7641977401       -0.0937925502
 N         -4.1888801902        1.3956851399       -0.4626302800
 S         -4.9879550402        0.2822550803        0.5005946505
 O         -6.3358719802        0.2126140201       -0.0172581294
 O         -4.8497983301        0.6734381209        1.8792026304
 C         -4.1565117302       -1.2657995998        0.1925794911
 C         -4.7747291602       -2.2142418002       -0.5995054584
 C         -4.1004407402       -3.3891699803       -0.8885108080
 C         -2.8199817702       -3.5895793701       -0.3939201880
 C         -2.2127943402       -2.6258099797        0.3956888716
 C         -2.8845722802       -1.4512861996        0.6950546912
 H         -2.4181097201       -0.6892546493        1.2980582608
 H         -1.2108810101       -2.7561905496        0.7722760416
 H         -2.2904672802       -4.5003953602       -0.6261304076
 H         -4.5706609302       -4.1414890005       -1.5012772576
 H         -5.7686247402       -2.0131350103       -0.9655975185
 H         -4.2648946603        1.1026016695       -1.4272018998
 H         -3.5427338301        2.7983241208        1.6492527294
 H         -1.2488425501        3.5063117611        2.2847500890
 H          0.6730888198        2.8390055005        0.8987583192
 C          0.7172712897        1.3556577196       -1.3155689502
 H          1.1685466897        2.2808558294       -1.7131591006
 C          0.3916487897        0.4825712791       -2.5199891998
 C          1.3326963496       -0.5862793711       -2.9870678194
 C          0.0194710297       -0.9621914109       -2.3727918592
 H         -0.7499960603       -1.3650292111       -3.0155147890
 H          0.0149610597       -1.3720466004       -1.3754441190
 H          1.4654612596       -0.7217129016       -4.0500928694
 H          2.2320128797       -0.7506382309       -2.4113645994
 H         -0.1172050404        1.0393866687       -3.3011125300
 O          3.4123497197        2.1815046896       -1.3931752707
