  62
        -98.94968852
 C         -0.7447459603       -1.7936161710       -0.1417245786
 C         -1.9256516474       -1.7073242343        0.6306110385
 C         -2.9524537526       -0.7812235033        0.1356731000
 C         -2.7215844323       -0.0862173310       -0.9931413303
 C         -3.6889982720        0.8806001691       -1.6140361661
 C         -3.4785182341        2.3181588274       -1.1192046762
 C         -3.3461491678        2.4434349588        0.3988073749
 H         -2.4306892698        1.9477143995        0.7346357381
 H         -3.2257033538        3.5053591452        0.6279888870
 C         -4.5411427643        1.8867161599        1.1851763764
 H         -5.4100538844        1.8046643050        0.5304546699
 H         -4.7955364384        2.5946772180        1.9768634729
 C         -4.2858258415        0.5384461384        1.8612188110
 H         -3.3504031532        0.5871709863        2.4257988420
 H         -5.0920811992        0.3596168891        2.5780399808
 C         -4.2257989078       -0.6760075902        0.9258710764
 H         -4.2675835204       -1.5763532236        1.5462168132
 H         -5.0953744454       -0.6742480949        0.2649180805
 H         -2.5716497256        2.7197834738       -1.5765697583
 H         -4.3213255076        2.9239669641       -1.4583250701
 H         -4.7028936313        0.5570268942       -1.3848142275
 H         -3.5480555718        0.8551927943       -2.6960702417
 O         -1.5658812276       -0.1808980904       -1.6987344861
 C         -0.5403591171       -1.0195047507       -1.2835098339
 O          0.4730272323       -0.9926886239       -2.0052981586
 O         -2.1182210239       -2.3850463054        1.6778938216
 C          0.3542821519       -2.7412207026        0.2958998401
 C          1.6411035038       -2.0029033664        0.5712677722
 C          2.8917977973       -2.5614323504        0.3332245933
 C          4.0442398187       -1.8583687659        0.6368049004
 C          3.9778123715       -0.5846451539        1.1713073093
 C          2.7323141980       -0.0184385815        1.4152429311
 C          1.5804909327       -0.7314292677        1.1251885957
 H          0.6211883972       -0.2797843815        1.3308402168
 N          2.6144835158        1.2730304514        1.9590924358
 S          1.4934635294        2.3196482329        1.2989534627
 O          1.9384596305        3.6317549205        1.7242975704
 O          0.1592518599        1.9558420399        1.7067979841
 C          1.6570889701        2.1871706204       -0.4716044874
 C          2.9138084773        2.1346093442       -1.0408505754
 C          3.0196820093        2.0582646362       -2.4195043657
 C          1.8762566422        2.0447977903       -3.2026535033
 C          0.6231077386        2.1106092173       -2.6172526390
 C          0.5127258068        2.1817758023       -1.2388219999
 H         -0.4419386329        2.2152664457       -0.7386906070
 H         -0.2681898994        2.0869062226       -3.2236450343
 H          1.9606418244        1.9763340952       -4.2757224779
 H          3.9935143805        2.0036050644       -2.8791124017
 H          3.7901487697        2.1510468219       -0.4137796744
 H          3.4921343140        1.7415290311        2.1326249675
 H          4.8770900058       -0.0347737586        1.4037098647
 H          5.0080506170       -2.3054942497        0.4475526484
 H          2.9628097943       -3.5500824732       -0.0896766753
 H          0.0045749769       -3.1744332254        1.2461108454
 C          0.5152551197       -3.8583494122       -0.7165901314
 C          0.8756237233       -5.2443686233       -0.2743070393
 C         -0.5121747292       -4.9485390017       -0.7550238547
 H         -0.8225812578       -5.3326549985       -1.7150499049
 H         -1.3084102399       -4.9017986909       -0.0261367976
 H          1.5187256846       -5.8368552571       -0.9076009108
 H          1.0170552237       -5.4129619609        0.7826781032
 H          0.9038173790       -3.5035535730       -1.6645053227
