  62
        -98.93903743
 C          2.1167518115        0.8824746187        0.3632134911
 C          2.7853626198        0.0289918933        1.2768899323
 C          3.2546793966       -1.2564390038        0.7439773214
 C          2.9707758484       -1.5798387608       -0.5305941361
 C          3.4190678441       -2.8368858689       -1.2167899641
 C          4.7689644368       -2.6362379561       -1.9198154064
 C          5.8348061555       -1.9878940415       -1.0361658119
 H          6.7511141867       -1.9235883266       -1.6267401587
 H          5.5301792139       -0.9647463671       -0.8041096091
 C          6.1197559825       -2.7407688782        0.2709603112
 H          7.2008525372       -2.7984029928        0.4129474006
 H          5.7473805915       -3.7631232034        0.1976130078
 C          5.5409845786       -2.0797147999        1.5233031643
 H          5.9798585857       -2.5661299625        2.3983510467
 H          5.8360022239       -1.0277262874        1.5517256658
 C          4.0165578521       -2.1573742995        1.6750412424
 H          3.6874300956       -3.1926311091        1.5635236848
 H          3.7649337503       -1.8234039328        2.6860266761
 H          4.6122936930       -1.9984670559       -2.7929125495
 H          5.1235326858       -3.6079366577       -2.2682020920
 H          3.4945168194       -3.6371494104       -0.4828675668
 H          2.6662795339       -3.1079269178       -1.9593168678
 O          2.2683633726       -0.7668698339       -1.3593205514
 C          1.8232415908        0.4814880631       -0.9418932112
 O          1.1931725957        1.1074631947       -1.8143888741
 H         -0.3453113177        0.5108663289        1.3745420857
 C         -0.7193975206        1.3774444779        0.8403071777
 C          0.1648146734        2.3944285054        0.5003500562
 C         -0.3286143882        3.4903204783       -0.1936734683
 C         -1.6658881331        3.5526173532       -0.5478409180
 C         -2.5365472004        2.5292618757       -0.2229788058
 C         -2.0525681163        1.4297622350        0.4720055466
 N         -2.9329175465        0.3655888548        0.7881675860
 S         -3.3848759403       -0.6196431096       -0.5128440215
 O         -2.5432751999       -1.8001374270       -0.5240201751
 O         -3.4277208918        0.1644557618       -1.7191748661
 C         -5.0397935728       -1.0741025170       -0.0302210126
 C         -6.0550808849       -0.1608035688       -0.2376075575
 C         -7.3405841661       -0.4835227250        0.1656698750
 C         -7.5878019930       -1.7075399670        0.7695244949
 C         -6.5585714212       -2.6142813282        0.9707823962
 C         -5.2701672464       -2.2961417606        0.5699850369
 H         -4.4412412571       -2.9732432154        0.6991378830
 H         -6.7534337068       -3.5662826909        1.4378892029
 H         -8.5891949653       -1.9571318320        1.0829605964
 H         -8.1435430108        0.2185399952        0.0088200337
 H         -5.8175123563        0.7735426602       -0.7186264000
 H         -2.5346378129       -0.2432981340        1.4919089369
 H         -3.5718486133        2.5573230264       -0.5194609177
 H         -2.0313822586        4.4077088400       -1.0960556690
 H          0.3389548674        4.2842586262       -0.4857972658
 C          1.6117908650        2.2159965412        0.8873010563
 H          1.6573690338        2.1090646245        1.9847486419
 C          2.4901293797        3.4065101025        0.5348336196
 C          3.9491359794        3.2288101430        0.2414539030
 C          3.0097145047        3.6366655383       -0.8515057348
 H          3.0613852873        4.6519472999       -1.2168622932
 H          2.7494011267        2.9132530474       -1.6080408466
 H          4.6432226395        3.9605578094        0.6267026550
 H          4.3379647608        2.2207470948        0.2307060479
 H          2.2224612260        4.2897830521        1.1064334968
 O          2.9703980052        0.3260439705        2.4879347492
