  62
        -98.92988089
 C         -2.4352743737       -1.0461169712        0.5516638286
 C         -2.5607193966        0.2722253027        1.0537743577
 C         -3.8298394456        0.9811105456        0.8015711064
 C         -4.8042035457        0.3363002760        0.1337904364
 C         -6.1581005356        0.8544680966       -0.2724224768
 C         -6.0903653797        1.8019504406       -1.4815131496
 C         -4.9535577163        2.8199737955       -1.4388211759
 H         -4.0016884104        2.2927380529       -1.3488110460
 H         -4.9423247479        3.3459566269       -2.3971686941
 C         -5.0591105017        3.8679051003       -0.3334223944
 H         -5.9900872524        4.4258510935       -0.4565735185
 H         -4.2309899984        4.5681595032       -0.4701978697
 C         -4.9988572046        3.3372279451        1.1002246082
 H         -5.9431150631        2.8845423905        1.3903110254
 H         -4.8511298334        4.1976057254        1.7596051421
 C         -3.8467131406        2.3762618599        1.3781510251
 H         -2.9052049556        2.8421228728        1.0641932763
 H         -3.7532757235        2.2480411363        2.4636768708
 H         -5.9563726677        1.1934234855       -2.3789972284
 H         -7.0454512727        2.3228638778       -1.5659212397
 H         -6.7570778730       -0.0166296791       -0.5465796313
 H         -6.6410475717        1.3361075968        0.5725847509
 O         -4.6478417592       -0.9385201816       -0.3184321141
 C         -3.4778790735       -1.6606208734       -0.1427133363
 O         -3.5158876568       -2.8002498292       -0.6399723194
 O         -1.6405461270        0.8466974766        1.7000273386
 C         -1.1169913427       -1.7520842031        0.8100159405
 C         -0.1511642131       -1.5360614785       -0.3276440179
 C         -0.5291996743       -1.7578125950       -1.6485607857
 C          0.3726487809       -1.5549374094       -2.6768236919
 C          1.6608791266       -1.1260158816       -2.4104547834
 C          2.0511328654       -0.9068893868       -1.0941605930
 C          1.1434410909       -1.1128439221       -0.0637706085
 H          1.4510352056       -0.9181798386        0.9526858247
 N          3.3690066432       -0.5177858156       -0.8005562681
 S          3.6547034481        0.5367003045        0.4876460869
 O          3.5656952248       -0.2043108542        1.7203575519
 O          2.8135970407        1.7064405093        0.3707635310
 C          5.3564813479        0.9603934648        0.1658753759
 C          6.3363450462        0.0379155807        0.4817111462
 C          7.6593618084        0.3469365648        0.2093993252
 C          7.9791463916        1.5661255206       -0.3699916297
 C          6.9853927189        2.4827377300       -0.6784124268
 C          5.6595413607        2.1790075095       -0.4107821604
 H          4.8536147755        2.8620448113       -0.6266769197
 H          7.2372143764        3.4311072571       -1.1250649086
 H          9.0098697863        1.8045861088       -0.5797674245
 H          8.4351939415       -0.3617421885        0.4502236261
 H          6.0413043201       -0.8915774051        0.9397834176
 H          3.8772544930       -0.2242757282       -1.6242864483
 H          2.3611117824       -0.9647182477       -3.2159264862
 H          0.0672322765       -1.7282298001       -3.6978209666
 H         -1.5336054495       -2.0943065773       -1.8570319199
 H         -0.6951392929       -1.2438584703        1.6928834956
 C         -1.2799602175       -3.2226731903        1.1705672669
 C         -0.8459935808       -4.3462449509        0.2827607798
 C         -0.0733527296       -4.0395325978        1.5281355835
 H         -0.1386898242       -4.7206119788        2.3630759271
 H          0.8922165631       -3.5680464160        1.4166841863
 H         -1.4668209468       -5.2285081691        0.2579266233
 H         -0.3997429827       -4.1023107280       -0.6680823736
 H         -2.1759564488       -3.3956081590        1.7582842644
