  62
        -98.92833876
 C         -0.6775091383       -2.0055602580        0.5341380908
 C         -1.4642745363       -1.8105744261       -0.6273913704
 C         -2.7492796047       -1.1058446649       -0.4339482280
 C         -3.0500009905       -0.5789114000        0.7657729015
 C         -4.2822503848        0.1556376006        1.2493302815
 C         -5.2886620478        0.7359646658        0.2583740330
 C         -4.7600908576        1.8734739323       -0.6141523333
 H         -5.5455127617        2.1474990624       -1.3221265356
 H         -4.5684383152        2.7414253488        0.0209435227
 C         -3.4780970931        1.5742774412       -1.3871893734
 H         -3.2339072845        2.4565047807       -1.9844634400
 H         -2.6534994181        1.4213866425       -0.6888660220
 C         -3.5461060371        0.3783731030       -2.3338398149
 H         -2.6376507429        0.3902517622       -2.9419530422
 H         -4.3997002612        0.4837418209       -3.0064201689
 C         -3.6248486253       -0.9974428212       -1.6496493833
 H         -4.6510910617       -1.2575088554       -1.3997136893
 H         -3.2600782172       -1.7457809825       -2.3592879782
 H         -5.7040214723       -0.0528726339       -0.3620641790
 H         -6.1140355663        1.1348853194        0.8547154118
 H         -4.8114333332       -0.5488037604        1.9011603365
 H         -3.9141618415        0.9555636125        1.8981587761
 O         -2.2055041247       -0.7003818425        1.8319148858
 C         -1.0344709968       -1.4295327493        1.7538662007
 O         -0.3969563944       -1.4922602801        2.8248615746
 H          0.8900066053       -0.5152953245       -0.9087250220
 C          1.8067416782       -0.8117001753       -0.4213826544
 C          1.8321089793       -1.9458992939        0.3797710909
 C          3.0239782359       -2.2845121633        1.0120849867
 C          4.1749788893       -1.5456817926        0.8041100724
 C          4.1507569481       -0.4350976461       -0.0198607351
 C          2.9543805131       -0.0577236097       -0.6140578114
 N          2.8623356671        1.1350981863       -1.3911490068
 S          2.7988358364        2.5305523795       -0.4573677865
 O          3.0214104582        3.6242228614       -1.3769585382
 O          3.7229013629        2.4525264761        0.6553060747
 C          1.1410615207        2.5956504908        0.1784611011
 C          0.8264718900        1.8538300973        1.2997283002
 C         -0.4415204899        1.9697339708        1.8467526299
 C         -1.3644805021        2.8273223042        1.2689030614
 C         -1.0362297397        3.5609787366        0.1386604412
 C          0.2270196969        3.4430500024       -0.4163801877
 H          0.5306208776        4.0026614324       -1.2859630663
 H         -1.7600234348        4.2246880463       -0.3060920369
 H         -2.3452720881        2.9270299417        1.7070628894
 H         -0.6980793147        1.3832866090        2.7155111735
 H          1.5685568671        1.2056255154        1.7388050380
 H          3.6177525133        1.2377206390       -2.0558454175
 H          5.0380977370        0.1586721342       -0.1795383352
 H          5.0943923364       -1.8306516448        1.2925312966
 H          3.0434443470       -3.1311182024        1.6826820573
 C          0.6095022422       -2.8111793947        0.5552461311
 H          0.6672049158       -3.2445336935        1.5675074670
 C          0.5868503452       -3.9708942828       -0.4340606379
 C          1.3382704146       -3.9563171266       -1.7275844218
 C          1.7748063761       -4.8670614614       -0.6224609245
 H          1.6002591814       -5.9272575694       -0.7277017638
 H          2.6886308002       -4.6201317241       -0.1055004396
 H          0.8531823948       -4.3738993117       -2.5960651072
 H          1.9445937396       -3.0906854390       -1.9464382081
 H         -0.3840110947       -4.4551007725       -0.4522827100
 O         -1.1480866258       -2.2083824622       -1.7760062196
