  62
        -98.94163795
 C         -2.0728151230       -1.4964703108        0.0454431002
 C         -2.3670111925       -0.5640780248       -0.9798415577
 C         -3.7115707688        0.0349286466       -0.9372259663
 C         -4.5686196169       -0.3177619329        0.0367859530
 C         -5.9462406302        0.2485557565        0.2197577746
 C         -5.9291072845        1.4676861766        1.1520725001
 C         -4.8655359989        2.5049556082        0.7917908190
 H         -4.9681414746        3.3341350589        1.4952473074
 H         -3.8754435971        2.0711042044        0.9511684465
 C         -4.9601447295        3.0387181165       -0.6444723771
 H         -5.9495679338        2.8299712793       -1.0529583911
 H         -4.8412055117        4.1241247714       -0.6224829369
 C         -3.8935697719        2.4936089626       -1.5962552219
 H         -2.9054101820        2.6168387602       -1.1451688658
 H         -3.9132485423        3.0961262843       -2.5084454636
 C         -4.0563907543        1.0262545226       -2.0133729478
 H         -5.0708390385        0.8595260569       -2.3809674896
 H         -3.3578481652        0.8350197730       -2.8332762977
 H         -6.9161425870        1.9331981336        1.1300788341
 H         -5.7386532315        1.1224433412        2.1708975530
 H         -6.3512162932        0.5263759608       -0.7514462307
 H         -6.5789223917       -0.5244596686        0.6593052377
 O         -4.2526088198       -1.2142335759        1.0051545480
 C         -3.0069380899       -1.8155908726        1.0365854343
 O         -2.8525897906       -2.6172023666        1.9795095617
 H          0.0686856190        0.2596174177       -0.4946476379
 C          0.6060981517       -0.1298332347        0.3573901681
 C          0.3062900443       -1.4027735790        0.8242645417
 C          1.0122629344       -1.8937089218        1.9161179798
 C          1.9861884678       -1.1246432727        2.5298945124
 C          2.2818191897        0.1430222434        2.0624354372
 C          1.5861684338        0.6399945912        0.9671679191
 N          1.8942746590        1.9183720528        0.4689659188
 S          3.5142808927        2.2797292620        0.2457302016
 O          4.0937136469        2.6832714441        1.5031248559
 O          3.5460829182        3.2677085029       -0.8091732058
 C          4.2584582213        0.7515596629       -0.2973528532
 C          3.8269060380        0.2066945813       -1.4906555444
 C          4.3580849319       -1.0037083908       -1.9059617556
 C          5.3054580430       -1.6460928216       -1.1235319032
 C          5.7337769879       -1.0826464491        0.0682347760
 C          5.2052097396        0.1272526358        0.4889814012
 H          5.5078677076        0.5993483168        1.4093468050
 H          6.4726821646       -1.5831765459        0.6729408026
 H          5.7106329575       -2.5917486368       -1.4469028058
 H          4.0238626550       -1.4444119545       -2.8313816158
 H          3.0901705648        0.7324957489       -2.0778030318
 H          1.3475053466        2.1769930971       -0.3395387709
 H          3.0322914196        0.7585368915        2.5313159109
 H          2.5213444361       -1.5159644446        3.3813604565
 H          0.7824847935       -2.8799060014        2.2920313226
 C         -0.7480148317       -2.2379696698        0.1450264908
 H         -0.9572920047       -3.0989853696        0.7985123505
 C         -0.2915132436       -2.7973418263       -1.1978417906
 C          0.8998014425       -2.2994438612       -1.9537814870
 C          0.9517405260       -3.6336158468       -1.2767294542
 H          0.9365367341       -4.5277096875       -1.8810883921
 H          1.5503759131       -3.7121952927       -0.3817296035
 H          0.8238003017       -2.2611476520       -3.0298143613
 H          1.4771661006       -1.4943251950       -1.5284214996
 H         -1.1346989842       -3.1247262358       -1.7983181254
 O         -1.5664101910       -0.2320074975       -1.8927511649
