  62
        -98.94458525
 C         -2.6117309800       -0.9997748397        0.2205979995
 C         -2.5424410497       -0.1042690093       -0.8742244102
 C         -3.0201104396        1.2628208407       -0.6194561098
 C         -3.5199108096        1.5809143204        0.5873755002
 C         -3.9845969394        2.9477739903        0.9955475106
 C         -2.8483492593        3.7508718600        1.6437040209
 C         -1.5451173493        3.7467511700        0.8434019910
 H         -0.8344317992        4.3820953397        1.3768472213
 H         -1.1209866294        2.7391378499        0.8360690508
 C         -1.6822399391        4.2426245104       -0.6026739588
 H         -2.6035025490        4.8162722106       -0.7143714187
 H         -0.8495441989        4.9148281204       -0.8201556785
 C         -1.6413668992        3.1347709307       -1.6571577391
 H         -0.7720082393        2.4948840505       -1.4748581393
 H         -1.5014787490        3.6015106210       -2.6364601390
 C         -2.8948744093        2.2533010010       -1.7421888795
 H         -3.7838499692        2.8841072411       -1.8053596594
 H         -2.8261334993        1.6627528812       -2.6604730697
 H         -3.1879196892        4.7794575600        1.7788308512
 H         -2.6431213595        3.3272647196        2.6293929508
 H         -4.3628059793        3.4737187607        0.1212813507
 H         -4.7936900395        2.8333546902        1.7189361905
 O         -3.6191338598        0.6835295201        1.5999673100
 C         -3.1401531300       -0.6055802299        1.4548166296
 O         -3.2519077902       -1.3081645902        2.4790858294
 H         -0.2390969399       -1.4225112995       -1.5562445304
 C          0.2233931500       -1.7704302199       -0.6446103605
 C         -0.5626019802       -2.3441130500        0.3449133993
 C          0.0515872696       -2.7558436305        1.5221025392
 C          1.4132372596       -2.5863340708        1.7044168094
 C          2.1859113998       -1.9829514406        0.7273221396
 C          1.5786236600       -1.5655963801       -0.4488338303
 N          2.3452611902       -0.8742874900       -1.4206151400
 S          2.6777170204        0.7129401498       -0.9480598395
 O          1.6335645504        1.2413934598       -0.0988152894
 O          2.9458627206        1.4413868502       -2.1691311993
 C          4.1901823403        0.5362745593       -0.0263470294
 C          5.3120392403        0.0979299493       -0.7029602095
 C          6.4951287702       -0.0663943311       -0.0008121494
 C          6.5357242101        0.2091674485        1.3581522306
 C          5.4014256001        0.6509585085        2.0219725507
 C          4.2141994202        0.8167078189        1.3252489906
 H          3.3051579602        1.1508076889        1.7995772407
 H          5.4347651701        0.8642958482        3.0783055308
 H          7.4569513001        0.0787986582        1.9036982107
 H          7.3794826802       -0.4093807311       -0.5131664695
 H          5.2343834903       -0.1001632903       -1.7588996095
 H          1.8754682902       -0.8414042196       -2.3164820700
 H          3.2427988698       -1.8264615208        0.8708635798
 H          1.8748940195       -2.9125541611        2.6238499993
 H         -0.5535795105       -3.1863185106        2.3069863191
 C         -2.0612311802       -2.4200418897        0.1771081792
 H         -2.4757199604       -2.9281103499        1.0577008990
 C         -2.4670806302       -3.1949724093       -1.0595511011
 C         -2.3908766105       -4.6910007793       -1.0316607715
 C         -3.7247779004       -4.0080218891       -1.0311758014
 H         -4.3295714903       -4.0505169087       -1.9244936715
 H         -4.2986056004       -4.0081116193       -0.1157519815
 H         -2.0776225205       -5.2067750491       -1.9262716517
 H         -2.0610519806       -5.1571895696       -0.1156181916
 H         -2.2243218001       -2.6936936591       -1.9867581809
 O         -2.1087785697       -0.4035977291       -2.0206118502
