  62
        -98.94439993
 C          1.2932054358        1.5470010023       -0.0951023139
 C          1.3210882356        0.1335565201       -0.1895614509
 C          2.4858698903       -0.5220904695        0.4225300480
 C          3.4334109104        0.2113626152        1.0318639091
 C          4.6671905625       -0.3189469247        1.7104996269
 C          5.8338536219       -0.5985253405        0.7528345794
 C          5.6632346175       -1.8264881567       -0.1427766469
 H          6.6358710362       -2.0285820043       -0.5959711614
 H          5.4051310030       -2.6894880224        0.4715664042
 C          4.6243865955       -1.6577059555       -1.2604837660
 H          5.0385413238       -2.0289014536       -2.2007782556
 H          4.4120934321       -0.5955317914       -1.4027706966
 C          3.3082194146       -2.3973046407       -1.0194547226
 H          2.6330555096       -2.1743213530       -1.8492228694
 H          3.4906737521       -3.4739869084       -1.0113154016
 C          2.5981616092       -2.0102082875        0.2838519300
 H          1.5839314070       -2.4145402837        0.2555152112
 H          3.1241954868       -2.4328581133        1.1392043612
 H          6.7284807320       -0.7425889027        1.3632461826
 H          5.9954072610        0.2857816985        0.1318829043
 H          4.9829865133        0.4460329144        2.4231142232
 H          4.4216847536       -1.2269922741        2.2616831340
 O          3.3638403542        1.5668079997        1.1148317994
 C          2.3094931131        2.2607353368        0.5482417392
 O          2.3890955705        3.4995529209        0.6791386713
 H         -1.5589309043        0.3243079125       -0.2702892898
 C         -1.8312585980        1.2012462479        0.2936128827
 C         -1.0491214719        2.3450866774        0.2114864170
 C         -1.3999960690        3.4525756215        0.9759609412
 C         -2.5149075190        3.4188172055        1.7939231823
 C         -3.3059920995        2.2861444087        1.8548150398
 C         -2.9571802560        1.1691414421        1.1028504449
 N         -3.7189738268       -0.0026055186        1.1759606445
 S         -3.8618097972       -1.0452483339       -0.1223909575
 O         -3.8648931438       -0.3406519033       -1.3830109333
 O         -5.0648572573       -1.7995064048        0.1728783761
 C         -2.4773666657       -2.1549064531       -0.0044220211
 C         -2.0721748920       -2.5814648973        1.2439286223
 C         -1.0514339494       -3.5130902518        1.3324843674
 C         -0.4625488818       -4.0056171443        0.1777120332
 C         -0.8798285866       -3.5645421802       -1.0676699964
 C         -1.8973946897       -2.6298266469       -1.1620343199
 H         -2.2426922599       -2.2507709562       -2.1107776155
 H         -0.4105648407       -3.9376035852       -1.9639665297
 H          0.3296158882       -4.7350473220        0.2489870675
 H         -0.7146654574       -3.8496909755        2.3002185400
 H         -2.5508735907       -2.1770335884        2.1205745477
 H         -4.5750513724        0.0653044335        1.7058599350
 H         -4.1829655788        2.2610377273        2.4837755407
 H         -2.7763809718        4.2855601114        2.3820196254
 H         -0.7826178135        4.3384385935        0.9322995581
 C          0.1703365003        2.3918903826       -0.6779946811
 H          0.5472365607        3.4237913808       -0.6732782794
 C         -0.1725374169        2.0184101859       -2.1066667040
 C         -0.8380647931        3.0363548553       -2.9808896179
 C          0.5880871353        2.6490587857       -3.2320803476
 H          0.8168674958        2.0493471401       -4.1002731858
 H          1.3610482382        3.3597383305       -2.9763026610
 H         -1.5953479438        2.7015138757       -3.6732919699
 H         -1.0305646026        4.0108112076       -2.5573675132
 H         -0.4697131761        0.9851215712       -2.2271623108
 O          0.4392253080       -0.5672679359       -0.7503149206
