  62
        -98.93902033
 C          2.0776014244        0.8034029013        0.5095620011
 C          1.9301797670        0.0874893749       -0.7007008547
 C          1.9239841140       -1.3816615279       -0.5957857020
 C          2.0387762958       -1.9506768039        0.6163524472
 C          2.0794408504       -3.4183364909        0.9447293639
 C          3.5271679822       -3.9378578024        0.9774424617
 C          4.0719605961       -4.4146080770       -0.3682005637
 H          5.1318472241       -4.6385043663       -0.2281925706
 H          3.5732181351       -5.3449286138       -0.6473251153
 C          3.9280577472       -3.4170325024       -1.5199434063
 H          4.1870899491       -2.4153405226       -1.1724008347
 H          4.6495879503       -3.6897314463       -2.2923558349
 C          2.5207940671       -3.4037518035       -2.1357815726
 H          2.5973376786       -3.5234649676       -3.2185307009
 H          1.9591144531       -4.2622019576       -1.7685107685
 C          1.7195679530       -2.1183400943       -1.8909812996
 H          0.6480217792       -2.3268201904       -1.9891555454
 H          1.9617704591       -1.3843687131       -2.6666145233
 H          4.1599706548       -3.1375351268        1.3692571133
 H          3.5825289903       -4.7720024634        1.6797556550
 H          1.4707689488       -3.9831682904        0.2447697538
 H          1.6477267113       -3.5205359712        1.9428923516
 O          2.1931793642       -1.2218022835        1.7584853296
 C          2.1906200110        0.1599989559        1.7392854103
 O          2.3016584319        0.6945274730        2.8633363307
 O          1.8136423164        0.6498437568       -1.8221449082
 C          1.9952913617        2.3190441416        0.5001533236
 C          0.6833418468        2.7340734658       -0.1233767131
 C          0.5577249220        3.7890783203       -1.0176171005
 C         -0.6710046292        4.0810732895       -1.5849298073
 C         -1.7893207664        3.3251111463       -1.2867830751
 C         -1.6776479834        2.2808992969       -0.3748356847
 C         -0.4545370074        2.0122798275        0.2142209848
 H         -0.3807397090        1.1975723634        0.9210962209
 N         -2.7953298646        1.5012398918       -0.0253507132
 S         -2.5524320006       -0.1329972074        0.3276781862
 O         -2.1124857197       -0.2533471189        1.6965402436
 O         -1.7172106041       -0.7549618052       -0.6745486487
 C         -4.2298204271       -0.7246875305        0.1892612369
 C         -4.6363916296       -1.3569621630       -0.9703309135
 C         -5.9528357523       -1.7778370169       -1.0783504231
 C         -6.8361239376       -1.5568871765       -0.0324367576
 C         -6.4132169625       -0.9215618019        1.1259028910
 C         -5.0981586982       -0.4999738317        1.2409675505
 H         -4.7200387718       -0.0106699255        2.1234123727
 H         -7.1018540333       -0.7535880480        1.9380878580
 H         -7.8600422187       -1.8841661836       -0.1195195177
 H         -6.2831013864       -2.2750169909       -1.9760804135
 H         -3.9117372017       -1.5118283577       -1.7537283280
 H         -3.5698745181        1.6245948714       -0.6638656317
 H         -2.7395519283        3.5368018023       -1.7529168074
 H         -0.7537939400        4.8979053002       -2.2857903158
 H          1.4244162498        4.3723541346       -1.2826479804
 H          1.9925957268        2.6317902288        1.5553287755
 C          3.2051717107        2.9178741318       -0.1866483492
 C          3.7280182707        4.2585628459        0.2313668895
 C          4.4917125056        3.0161080287        0.5748003244
 H          5.4157306072        2.8148608871        0.0540493148
 H          4.4847086764        2.6746564602        1.6000099995
 H          4.1331912683        4.9127073234       -0.5258374192
 H          3.2113519572        4.7701535231        1.0293152223
 H          3.2616046182        2.6459515789       -1.2344210507
