  62
        -98.94477897
 C          1.9168828104        0.1300255790       -0.7875185304
 C          2.9331162204        1.1064081990       -0.6554912104
 C          4.2977296104        0.5911016890       -0.5020688904
 C          4.5147892104       -0.7367593210       -0.5172852304
 C          5.8518972204       -1.4150337209       -0.3890674105
 C          6.3200866505       -1.6006944209        1.0609910395
 C          6.7752060105       -0.3228589709        1.7672475495
 H          7.2777450305       -0.6275427109        2.6874252395
 H          7.5124532105        0.1898306691        1.1486362395
 C          5.6370564105        0.6436797991        2.1233751795
 H          4.6827066505        0.1137841691        2.0778814996
 H          5.7618448905        0.9901810091        3.1517853695
 C          5.5579630305        1.8841666491        1.2334685095
 H          4.6968503005        2.4786625491        1.5490669195
 H          6.4549858104        2.4918114591        1.3713036495
 C          5.3997384404        1.5785026891       -0.2617661505
 H          6.3390590604        1.2089342091       -0.6722010305
 H          5.1331697004        2.5055520990       -0.7751523305
 H          5.5123161105       -2.0650754309        1.6315157496
 H          7.1594710305       -2.2997353909        1.0448458695
 H          6.6029754804       -0.8547388309       -0.9466177505
 H          5.7444657304       -2.4016861509       -0.8448598704
 O          3.5125268604       -1.6426582510       -0.6732949104
 C          2.1900198404       -1.2376409910       -0.7915219703
 O          1.3749419604       -2.1736788410       -0.8967064103
 O          2.7088857904        2.3463342290       -0.6611205404
 C          0.4764331304        0.5884356290       -0.9278159003
 C         -0.3602132196        0.0018902690        0.1814575497
 C          0.0727286505        0.1571311090        1.4969787897
 C         -0.6408288995       -0.3859726610        2.5462877097
 C         -1.8133823095       -1.0829785810        2.3094421898
 C         -2.2612794595       -1.2339053210        1.0039409098
 C         -1.5389640096       -0.6881329910       -0.0502366802
 H         -1.9055854396       -0.8371331310       -1.0515356802
 N         -3.4464639895       -1.9383957410        0.7323635599
 S         -4.5799417796       -1.2699415111       -0.2998021501
 O         -5.8034661695       -1.9844340911       -0.0092952601
 O         -4.1179616096       -1.3278939111       -1.6623299101
 C         -4.7135864796        0.4223348889        0.2460295099
 C         -5.4400496995        0.6812987489        1.3922389599
 C         -5.4907195795        1.9783352989        1.8755035199
 C         -4.8092225096        2.9880631989        1.2127007698
 C         -4.0861629296        2.7118352089        0.0628287698
 C         -4.0350341496        1.4165668389       -0.4281629002
 H         -3.4866832196        1.1627609789       -1.3201888402
 H         -3.5584918196        3.4987719989       -0.4522288002
 H         -4.8431148196        3.9970089289        1.5925098798
 H         -6.0563597195        2.1978468989        2.7666530699
 H         -5.9630344395       -0.1299311111        1.8723105299
 H         -3.8947148795       -2.3246203210        1.5505332299
 H         -2.3695885694       -1.5160005110        3.1269193698
 H         -0.2854110894       -0.2649875310        3.5584576197
 H          0.9889216805        0.7013420390        1.6820338697
 H          0.5067228304        1.6807036790       -0.7980710903
 C         -0.0436005796        0.2792834590       -2.3151967503
 C         -1.0759573597        1.1615546189       -2.9484688603
 C          0.3353698303        1.1785594890       -3.4521562703
 H          0.5500962603        0.7328063689       -4.4117954403
 H          0.9496014903        2.0367353790       -3.2214582203
 H         -1.8402945097        0.7045431189       -3.5598819302
 H         -1.4113634997        2.0181215289       -2.3831415603
 H         -0.0856749996       -0.7851350110       -2.5196829403
