  62
        -98.93441865
 C          2.3371864547        1.0687176273        0.1101271275
 C          2.7277458174        0.0598761136        1.0177694410
 C          2.9491760597       -1.2865240764        0.4596913193
 C          2.7740960447       -1.4818968111       -0.8598706709
 C          2.8992504187       -2.7573476788       -1.6550472309
 C          4.0768538746       -3.6850831605       -1.3197592396
 C          3.6578840907       -4.9688609309       -0.6005045635
 H          2.7206281033       -5.3198725250       -1.0374731315
 H          4.4127548554       -5.7357317896       -0.7876442777
 C          3.4923348107       -4.8440195900        0.9128787817
 H          4.4749685530       -4.7356419616        1.3768400785
 H          3.0615518697       -5.7797695681        1.2765266438
 C          2.6095574981       -3.6847029003        1.3783210570
 H          2.2449550606       -3.9219638473        2.3801720630
 H          1.7335696016       -3.5880964553        0.7362743744
 C          3.3521999839       -2.3415321125        1.4537088277
 H          3.1804820572       -1.8802755984        2.4312728876
 H          4.4306856116       -2.5057342461        1.3818174065
 H          4.5503025102       -3.9683241227       -2.2612000549
 H          4.8196724087       -3.1452733631       -0.7351104885
 H          1.9554914922       -3.3030273999       -1.5662159523
 H          2.9678686027       -2.4322941280       -2.6959924588
 O          2.3975967978       -0.4755007407       -1.7007084111
 C          2.1408559463        0.8050365901       -1.2448330606
 O          1.7643155016        1.6005710609       -2.1263584035
 O          2.8672664181        0.2692237575        2.2547462372
 C          2.0069477378        2.4542966870        0.6383888789
 C          0.5429019877        2.7184728534        0.3827386722
 C          0.0527802099        3.8575984530       -0.2406518798
 C         -1.2998616634        3.9833983543       -0.5118097651
 C         -2.1902501770        2.9827488029       -0.1682579035
 C         -1.7118083667        1.8520138216        0.4776934503
 C         -0.3622294974        1.7323314868        0.7570397432
 H          0.0039002223        0.8370052474        1.2464689259
 N         -2.6156021614        0.8052230818        0.8072706465
 S         -2.9235769010       -0.2288238823       -0.4994264337
 O         -1.9318011792       -1.2863766784       -0.5273269308
 O         -3.0639824057        0.5628228756       -1.6937987812
 C         -4.5064312716       -0.8990401308       -0.0271527577
 C         -4.5802847109       -2.1501826381        0.5525217967
 C         -5.8175386941       -2.6322298155        0.9510326164
 C         -6.9520393916       -1.8567138336        0.7679991052
 C         -6.8614202969       -0.6013331838        0.1849272518
 C         -5.6278326738       -0.1147358879       -0.2160184231
 H         -5.5082619917        0.8501283933       -0.6800653980
 H         -7.7459928484       -0.0017686928        0.0426186944
 H         -7.9131123394       -2.2338419658        1.0800058210
 H         -5.8906063814       -3.6085720162        1.4025371033
 H         -3.6729218795       -2.7208814205        0.6690051040
 H         -2.2420522199        0.2266184158        1.5500218560
 H         -3.2386780800        3.0551243451       -0.4052804403
 H         -1.6616934234        4.8692781013       -1.0112151070
 H          0.7331514293        4.6399832568       -0.5347960001
 H          2.1674018921        2.4017147493        1.7253900286
 C          2.9309625632        3.5003962995        0.0553510960
 C          3.2071802897        4.7643928235        0.8121384859
 C          4.2714376932        3.7171039889        0.6889704554
 H          5.1180488530        3.9115250877        0.0479887108
 H          4.5101081158        3.1226634709        1.5587773598
 H          3.3263590088        5.6819653942        0.2563214253
 H          2.7263235757        4.8872436050        1.7706506887
 H          2.8739534624        3.5487722586       -1.0261732811
