  62
        -98.94798304
 C         -1.2841041201       -1.0260200396       -0.0072989507
 C         -1.6355507504        0.0759221400        0.8078459597
 C         -2.6965078706        0.9483194399        0.2900068801
 C         -3.2134817306        0.7007412403       -0.9273507100
 C         -4.3276429108        1.4820064903       -1.5603793697
 C         -5.6965782206        0.8761386398       -1.2197429698
 C         -5.8949387605        0.5969049692        0.2700005201
 H         -6.9046614904        0.2000743689        0.3946855399
 H         -5.2000366703       -0.1865387007        0.5805050297
 C         -5.7120441708        1.8233540789        1.1748152505
 H         -5.7831809410        2.7356157991        0.5814101709
 H         -6.5251937007        1.8459644885        1.9033512205
 C         -4.4037317607        1.8367215989        1.9674498205
 H         -4.4728421609        2.6223077286        2.7245785108
 H         -4.2841875805        0.8853550887        2.4918077701
 C         -3.1315351208        2.1001925995        1.1515281605
 H         -2.3121097008        2.2736111294        1.8557158506
 H         -3.2570920910        3.0035267297        0.5503550409
 H         -6.4723361508        1.5589791298       -1.5709482096
 H         -5.8015641604       -0.0661789900       -1.7623185302
 H         -4.1886319608        1.4613025907       -2.6427609297
 H         -4.2785237310        2.5146424001       -1.2196518893
 O         -2.8048402504       -0.3293325293       -1.7112564704
 C         -1.8324218201       -1.2181421093       -1.2749329707
 O         -1.5516455200       -2.1139251889       -2.0937952511
 O         -1.0844514004        0.3177460397        1.9164561398
 C         -0.2067425399       -1.9799101196        0.4724799989
 C          1.0093041000       -1.8958138690       -0.4177647411
 C          1.7658559003       -2.9993149786       -0.7917527815
 C          2.8888500702       -2.8395744081       -1.5854723715
 C          3.2991758999       -1.5841889678       -1.9962081910
 C          2.5526237397       -0.4731965182       -1.6207614106
 C          1.4155233597       -0.6402592687       -0.8480408406
 H          0.8273807996        0.2273331811       -0.5919197803
 N          2.9311844194        0.8244438921       -1.9978946001
 S          2.7083053991        2.0794817916       -0.9132602496
 O          1.3212739890        2.4700564313       -0.8708823395
 O          3.6344612989        3.0999969920       -1.3577828393
 C          3.2480033693        1.4196366112        0.6543950401
 C          4.6015988894        1.1788334514        0.7983027400
 C          5.0647232795        0.6149508211        1.9748685797
 C          4.1686579996        0.2958865605        2.9843208096
 C          2.8155500696        0.5492574802        2.8273576698
 C          2.3453181294        1.1166884906        1.6525937300
 H          1.2937964094        1.3137787304        1.5113772701
 H          2.1112415497        0.3049815398        3.6067774997
 H          4.5257761298       -0.1501806098        3.8991035695
 H          6.1179924296        0.4226123713        2.1004221596
 H          5.2666236193        1.4510710919       -0.0051930300
 H          3.8201865993        0.8889855725       -2.4713859701
 H          4.1799052299       -1.4623347574       -2.6076389610
 H          3.4605114304       -3.7063494478       -1.8801233318
 H          1.4719430005       -3.9846765388       -0.4696054319
 H          0.0870927000       -1.6084936899        1.4666654791
 C         -0.7549345496       -3.3836811797        0.6207228584
 C         -0.2053685893       -4.3035918200        1.6687204480
 C         -1.5731920095       -3.7145815704        1.8319504483
 H         -2.4329200593       -4.3569730505        1.7141220281
 H         -1.7108841596       -2.9330501407        2.5651341386
 H         -0.1274190191       -5.3559451799        1.4409149577
 H          0.5850941206       -3.9271240401        2.3000404482
 H         -1.0676361995       -3.8093966295       -0.3259045617
