  62
        -98.94387589
 C          1.6684429492        1.4313218277        0.5633805581
 C          2.6568994619        1.0615066444       -0.3812968542
 C          3.4846569519       -0.1003398261       -0.0165830081
 C          3.2089537246       -0.7906955862        1.1038698376
 C          3.9312359730       -2.0274282349        1.5526975118
 C          3.2776053276       -3.3000543631        0.9958488332
 C          3.0046536559       -3.2491867087       -0.5072554349
 H          2.5747674352       -4.2120531542       -0.7918668352
 H          2.2538397263       -2.4818355215       -0.7089457148
 C          4.2444702064       -2.9763081760       -1.3697388179
 H          5.1497229091       -3.1751118255       -0.7947435776
 H          4.2415678270       -3.6654213740       -2.2168128293
 C          4.3107299076       -1.5613331939       -1.9460410649
 H          3.3674988056       -1.3220295501       -2.4431249072
 H          5.0961491337       -1.5394228227       -2.7062632308
 C          4.6204355373       -0.4479156633       -0.9379719643
 H          5.5116991117       -0.7098737869       -0.3637403139
 H          4.8338163868        0.4617617261       -1.5067456763
 H          3.9294055206       -4.1462816263        1.2207978017
 H          2.3286784836       -3.4583409347        1.5133470859
 H          4.9686888452       -1.9698739996        1.2283682273
 H          3.9047076614       -2.0634349292        2.6432787534
 O          2.1953938160       -0.4559606431        1.9436429943
 C          1.4177510417        0.6627011479        1.7042282770
 O          0.5401443019        0.8684278475        2.5671858858
 H         -1.6906196084        2.0889084863        1.3699164801
 C         -1.6443284103        1.8726932471        0.3111658183
 C         -0.4691741885        2.1239767555       -0.3813893062
 C         -0.4104811885        1.8086885486       -1.7348528841
 C         -1.5070861424        1.2557264914       -2.3714751068
 C         -2.6745630704        0.9931556687       -1.6745028192
 C         -2.7379929382        1.3002396991       -0.3222444038
 N         -3.9037029661        0.9958443938        0.4069183053
 S         -4.4705696448       -0.5726217067        0.2591800749
 O         -5.2918647891       -0.6746695756       -0.9215788000
 O         -5.1360741517       -0.8618447799        1.5102556690
 C         -3.0219292529       -1.6000333230        0.0654236441
 C         -1.9931875069       -1.4864173754        0.9797650594
 C         -0.8684307816       -2.2800398057        0.8249919942
 C         -0.7948671936       -3.1781819563       -0.2282423383
 C         -1.8371151991       -3.2829500560       -1.1360641949
 C         -2.9597824669       -2.4838784171       -0.9928174940
 H         -3.7883974071       -2.5249386352       -1.6809820020
 H         -1.7751413436       -3.9811044426       -1.9551501925
 H          0.0807061596       -3.7976864921       -0.3403911288
 H         -0.0540591520       -2.1787690050        1.5259880049
 H         -2.0598256802       -0.7856662781        1.7970050604
 H         -3.8455646856        1.2569608202        1.3810830514
 H         -3.5312586236        0.5454401213       -2.1521685241
 H         -1.4500796939        1.0137264184       -3.4217575594
 H          0.5104890463        1.9718577108       -2.2730232965
 C          0.7361103010        2.6212151855        0.3779553374
 H          0.4011924991        2.8984463771        1.3869094702
 C          1.3763336612        3.8359896096       -0.2568478924
 C          0.7049320130        5.1655482126       -0.0941095575
 C          1.9891397417        4.8810403287        0.6240684529
 H          2.8898406214        5.3725896298        0.2885942024
 H          1.9519728174        4.7230466285        1.6924339184
 H          0.7210606713        5.8554015820       -0.9236663996
 H         -0.2043336340        5.2000343817        0.4874521233
 H          1.8709795454        3.6329783812       -1.1960977063
 O          2.8633123310        1.6530950657       -1.4721059387
