  62
        -98.94075503
 C         -2.0274190575       -1.3393129263        0.3709905817
 C         -2.4998355526       -0.6320429124       -0.7625135424
 C         -3.7016059383        0.1911449772       -0.5481685497
 C         -4.2656316698        0.2406407944        0.6714157474
 C         -5.4555775811        1.0792199249        1.0358578642
 C         -5.0237676048        2.4588072506        1.5525671646
 C         -4.0036554393        3.1626456253        0.6571832964
 H         -3.7955381555        4.1372382234        1.1043806240
 H         -3.0675436012        2.5990292572        0.6685943271
 C         -4.4592903832        3.3541855167       -0.7962063239
 H         -5.5426103048        3.2462636620       -0.8618100482
 H         -4.2154114347        4.3721118102       -1.1076591846
 C         -3.7943088696        2.4104078930       -1.8002488025
 H         -2.7085543328        2.4468445097       -1.6761142786
 H         -4.0189115559        2.7732639272       -2.8067922482
 C         -4.2382784076        0.9436424366       -1.7330056534
 H         -5.3282060168        0.8869096489       -1.7661281726
 H         -3.8393458221        0.4371575926       -2.6167869969
 H         -5.9128406518        3.0836852653        1.6540812132
 H         -4.5809498141        2.3347535135        2.5436518867
 H         -6.0964695464        1.1904609210        0.1635060138
 H         -6.0118642772        0.5650003408        1.8214588858
 O         -3.7721798875       -0.4354718243        1.7403991844
 C         -2.6343563081       -1.2176935942        1.6233354678
 O         -2.2614197957       -1.7398413328        2.6932544510
 H          0.2132028805        0.1548770730        0.9530277778
 C          0.7071785490       -0.2361044453        0.0710437726
 C          0.3136966681       -1.4722956139       -0.4291213684
 C          0.9573877927       -1.9648452991       -1.5557167264
 C          1.9471612497       -1.2227228572       -2.1774430299
 C          2.3205161162        0.0154730367       -1.6900263278
 C          1.6914115323        0.5122007529       -0.5548428738
 N          2.0689037620        1.7656258450       -0.0444538505
 S          3.6997240903        2.1272181353        0.0383630969
 O          3.8209294909        3.0750827875        1.1241459680
 O          4.1639553993        2.5836392534       -1.2479625129
 C          4.5027171801        0.5899936551        0.4580024910
 C          4.1391552380       -0.0333640515        1.6353554367
 C          4.7293063967       -1.2428050813        1.9635473630
 C          5.6690494894       -1.8053955459        1.1130875367
 C          6.0280438436       -1.1641710687       -0.0620638573
 C          5.4390578968        0.0448587761       -0.3964172992
 H          5.6860738959        0.5757502595       -1.3013162359
 H          6.7607446730       -1.6027536777       -0.7199875383
 H          6.1240225777       -2.7487842997        1.3703641548
 H          4.4513527572       -1.7422198750        2.8778815112
 H          3.4092471125        0.4321634694        2.2784833754
 H          1.5875564509        2.0308345338        0.8015199333
 H          3.0728112567        0.6137004709       -2.1779716339
 H          2.4292503947       -1.6113217734       -3.0613743064
 H          0.6648676848       -2.9166648348       -1.9665709864
 C         -0.7813646422       -2.2067588682        0.3057941577
 H         -0.4614314115       -2.3179389196        1.3553054086
 C         -1.0253521789       -3.6138508280       -0.2189043574
 C         -2.3631521755       -4.2728798827       -0.0679330113
 C         -1.8673703022       -3.8866689554       -1.4274678953
 H         -1.5578645283       -4.6732501124       -2.1001941727
 H         -2.3195066076       -3.0421893306       -1.9222706704
 H         -2.3917486003       -5.3199977826        0.1938644767
 H         -3.1618721773       -3.6924870173        0.3712439968
 H         -0.1602038329       -4.2533681718       -0.0738865553
 O         -1.9584579682       -0.6742704273       -1.8963210898
