  62
        -98.94292802
 C         -2.0510276006       -0.9283621533        0.4720874614
 C         -2.7370579083        0.1285637537        1.1270843584
 C         -4.1657539664        0.2645718302        0.8277624265
 C         -4.7558975988       -0.6100540967       -0.0065313935
 C         -6.2098533779       -0.6257327417       -0.3929418446
 C         -6.5604072822        0.3304001055       -1.5411998369
 C         -6.5565115700        1.8151584105       -1.1752498698
 H         -7.0284880609        2.3502091705       -2.0016889769
 H         -7.1747642046        1.9721858911       -0.2908356263
 C         -5.1591793237        2.4059532503       -0.9400618577
 H         -4.4044150686        1.7402070270       -1.3652929124
 H         -5.0739966178        3.3606201502       -1.4641040186
 C         -4.8181489682        2.6643209766        0.5277155425
 H         -3.7948436763        3.0455796033        0.5797461839
 H         -5.4837452947        3.4316442995        0.9295363564
 C         -4.9064975481        1.4226511344        1.4246764382
 H         -5.9492466083        1.1582002128        1.5997720754
 H         -4.4385083376        1.6581651360        2.3837979725
 H         -5.8646285000        0.1567785814       -2.3652270021
 H         -7.5615525358        0.0670051196       -1.8899769026
 H         -6.8226587329       -0.3908150290        0.4778011994
 H         -6.4353963973       -1.6452881723       -0.7127266150
 O         -4.0732289921       -1.6240426013       -0.5956673020
 C         -2.7097006637       -1.7984782225       -0.3975417238
 O         -2.2372903374       -2.7520659982       -1.0462322256
 O         -2.1789874094        0.9179429975        1.9364708200
 C         -0.5696912625       -1.0635857403        0.7778313360
 C          0.2910749360       -0.4195758554       -0.2831338841
 C          0.2281107302       -0.8173168522       -1.6152405557
 C          1.0338818808       -0.2158876113       -2.5642152439
 C          1.9333119714        0.7725168770       -2.2026498012
 C          2.0098547996        1.1711305930       -0.8743544230
 C          1.1828338789        0.5817294494        0.0728916417
 H          1.2472923724        0.9127008106        1.0984480663
 N          2.9246271854        2.1620197260       -0.4655923197
 S          4.0586637051        1.7451921079        0.6949351448
 O          3.3995726729        1.4322818008        1.9358813544
 O          4.9940150769        2.8468349561        0.7192040908
 C          4.8503065205        0.2919101079        0.0275899097
 C          6.0195626644        0.4419279365       -0.6924766193
 C          6.5974166411       -0.6746885374       -1.2745471899
 C          5.9915871016       -1.9145931644       -1.1381897355
 C          4.8160404800       -2.0478468243       -0.4153459837
 C          4.2365997939       -0.9363037937        0.1759607136
 H          3.3241727025       -1.0076191248        0.7449976017
 H          4.3423953572       -3.0107454025       -0.3110464004
 H          6.4375961191       -2.7831401334       -1.5964538117
 H          7.5133939313       -0.5745855988       -1.8342491712
 H          6.4563400873        1.4245012467       -0.7703096678
 H          3.3874816312        2.6274042612       -1.2341767330
 H          2.5673394308        1.2359998704       -2.9434957448
 H          0.9687744419       -0.5277464161       -3.5955340428
 H         -0.4640831142       -1.5954133258       -1.8978527069
 H         -0.4201554083       -0.4988372504        1.7087228402
 C         -0.1225548130       -2.4935094665        1.0136506726
 C          1.0749158493       -2.7435003183        1.8787886006
 C         -0.2952034901       -3.0993217334        2.3722626554
 H         -0.5681274229       -4.1415832182        2.4397904573
 H         -0.7356301900       -2.4824034861        3.1423336291
 H          1.7471991778       -3.5444258025        1.6121565461
 H          1.5615522899       -1.8872196775        2.3238198469
 H         -0.2748176894       -3.1390830743        0.1586879257
