  62
        -98.93463132
 C          2.3459997185        1.1907328874        0.1004690913
 C          3.2622714454        0.5158774933        0.9431477221
 C          4.1359455234       -0.4892260350        0.3131857629
 C          3.9918018441       -0.7568705261       -0.9980669537
 C          4.7564641961       -1.6876108475       -1.9159054504
 C          5.6711861801       -2.7688638294       -1.3464678281
 C          4.9499254473       -3.8844552839       -0.5909295137
 H          5.7031860036       -4.5407261561       -0.1497203944
 H          4.3737825792       -4.4743135329       -1.3082626647
 C          3.9894433419       -3.4257224595        0.5036082162
 H          3.5467649917       -4.3176417451        0.9557501810
 H          3.1725740174       -2.8532895518        0.0585790404
 C          4.6206035032       -2.6019024966        1.6246267082
 H          5.4641680461       -3.1476707608        2.0516167123
 H          3.8685107508       -2.4834112176        2.4097515909
 C          5.0975322252       -1.1941935585        1.2260440185
 H          6.0920675624       -1.2229014269        0.7871496110
 H          5.1576027956       -0.5894439797        2.1357026569
 H          6.4402871507       -2.3225644592       -0.7229755793
 H          6.1809044740       -3.2252110626       -2.1993161709
 H          5.3525378415       -1.0381005060       -2.5665432825
 H          4.0032724933       -2.1565831602       -2.5569444198
 O          3.0579614313       -0.1178500458       -1.7600608449
 C          2.2101670119        0.8535122943       -1.2459588272
 O          1.4072723346        1.3097228923       -2.0789766920
 O          3.3509183086        0.7442170833        2.1801464478
 C          1.4407259884        2.2337197863        0.7299437577
 C          0.0069368260        1.9886734465        0.3298281069
 C         -0.7902193857        2.9296452581       -0.3067638117
 C         -2.0995123269        2.6272445404       -0.6392262611
 C         -2.6403695610        1.3889854424       -0.3487114522
 C         -1.8538672133        0.4406430535        0.2928943525
 C         -0.5467289157        0.7502479041        0.6337922623
 H          0.0670468587        0.0096869191        1.1338529999
 N         -2.3867207782       -0.8293678561        0.5745102273
 S         -3.8800106678       -0.9237501400        1.3343883508
 O         -4.1145530756        0.2202788178        2.1849244248
 O         -3.8906908472       -2.2175043463        1.9820704438
 C         -5.0482244406       -0.9379757419       -0.0086485765
 C         -6.0795396789       -0.0197301137       -0.0345216997
 C         -6.9829651388       -0.0565916691       -1.0853391968
 C         -6.8402454387       -1.0063570158       -2.0851988595
 C         -5.8003577766       -1.9232696749       -2.0428815064
 C         -4.8946984668       -1.8927672322       -0.9946049573
 H         -4.0747871305       -2.5880492157       -0.9237871960
 H         -5.6920373047       -2.6600239846       -2.8225608019
 H         -7.5433259377       -1.0324852339       -2.9026642843
 H         -7.7919884766        0.6551665249       -1.1201490765
 H         -6.1468659266        0.7044168616        0.7616780721
 H         -1.7274280388       -1.4624962695        1.0030182664
 H         -3.6567033823        1.1489492019       -0.6148306638
 H         -2.7057443421        3.3660473435       -1.1408336400
 H         -0.3814310566        3.8929108345       -0.5630363568
 H          1.5210063697        2.0432964911        1.8140626572
 C          1.8940633856        3.6696095824        0.5136407094
 C          3.3379470850        3.9964671318        0.2796346920
 C          2.3404341404        4.1797900646       -0.8225454687
 H          2.0682562991        5.1870801662       -1.1022395835
 H          2.3458551630        3.4837779257       -1.6462410609
 H          3.7488122173        4.8736988247        0.7565161207
 H          4.0329334180        3.1722034789        0.2089240806
 H          1.3428458515        4.3642682104        1.1403218430
