  62
        -98.93520155
 C         -2.1117087299       -0.9326669346        0.2557293586
 C         -2.6948471745        0.0359475655        1.1097183652
 C         -3.4055162504        1.1402971457        0.4544553254
 C         -3.4048075512        1.2127830225       -0.8890425338
 C         -4.1206305830        2.2590578415       -1.6921326013
 C         -5.5435436822        1.8078262742       -2.0504443890
 C         -6.3413550929        1.2776167951       -0.8591327727
 H         -5.8791378362        0.3537171164       -0.5042547453
 H         -7.3377752215        1.0196798280       -1.2240416065
 C         -6.4648540411        2.2632452123        0.3111598589
 H         -7.4995172598        2.2649671885        0.6602411040
 H         -6.2361176497        3.2736913090       -0.0294369522
 C         -5.5885155844        1.9260996283        1.5189376209
 H         -5.7458537649        0.8834395108        1.8062747634
 H         -5.9107136481        2.5489696361        2.3576277331
 C         -4.0824521485        2.1527927949        1.3352236889
 H         -3.6089761311        2.0596371109        2.3172208040
 H         -3.9040759465        3.1648019799        0.9651649763
 H         -5.4762269967        1.0145542824       -2.7983714444
 H         -6.0704091197        2.6528883822       -2.4971296685
 H         -4.1534166696        3.1863772452       -1.1232018229
 H         -3.5583297990        2.4286811918       -2.6119795855
 O         -2.7783976954        0.3041189863       -1.6757421724
 C         -2.1198286568       -0.7937085713       -1.1339076943
 O         -1.6013407802       -1.5361148809       -1.9840039599
 H          0.3373066583       -0.4365321589        1.9284658660
 C          0.8153985423       -1.0204859760        1.1506792438
 C          0.0740008838       -2.0028926734        0.4970129554
 C          0.6988468728       -2.7130401011       -0.5201368154
 C          2.0180923643       -2.4523365930       -0.8533188154
 C          2.7439968422       -1.4751050318       -0.1992511612
 C          2.1271902858       -0.7438934293        0.8070529808
 N          2.8468920816        0.2801479063        1.4616690092
 S          3.3196512777        1.5625722541        0.4764188335
 O          3.4710608378        2.6932472483        1.3670782395
 O          2.4109375775        1.7365832051       -0.6347667256
 C          4.9253926417        1.0688081780       -0.1122536975
 C          5.1406255699        0.8995890741       -1.4658030280
 C          6.3994358313        0.5137239650       -1.9000878003
 C          7.4139081004        0.3052174720       -0.9781599248
 C          7.1815870096        0.4820329708        0.3778948965
 C          5.9260849028        0.8686558349        0.8187266108
 H          5.7030695128        1.0227913662        1.8611998273
 H          7.9733894212        0.3198869655        1.0912984459
 H          8.3917606002        0.0040677063       -1.3193157634
 H          6.5814957642        0.3760056796       -2.9538192812
 H          4.3187393712        1.0666700385       -2.1438792976
 H          2.3578822454        0.6465333002        2.2672960096
 H          3.7676282522       -1.2675979361       -0.4651905882
 H          2.4825514017       -3.0168617443       -1.6475391652
 H          0.1586898314       -3.4485189746       -1.0876329609
 C         -1.3734735108       -2.0960286273        0.9098991335
 H         -1.4033640756       -1.8524297029        1.9841720884
 C         -2.1471634812       -3.3996533326        0.7833189681
 C         -2.2937433522       -4.2255914851       -0.4576294860
 C         -1.5086318868       -4.7536526915        0.7056190768
 H         -1.9424016665       -5.5521035880        1.2891820671
 H         -0.4346096059       -4.8027868117        0.6263730193
 H         -1.7904554729       -3.9005118029       -1.3527141045
 H         -3.2664054500       -4.6557103350       -0.6517053959
 H         -3.0450995814       -3.3377885743        1.3945617029
 O         -2.6217995671       -0.0207387805        2.3687884223
