  62
        -98.94497822
 C         -1.8794701194       -0.7040323093       -0.2004459413
 C         -2.4539990193       -0.1391181502        0.9626976791
 C         -3.5163927894        0.8470277199        0.7371725599
 C         -3.8495031795        1.1923587508       -0.5200076598
 C         -4.8991199596        2.1965895011       -0.9120946590
 C         -6.3232253096        1.6250961910       -0.9492794193
 C         -6.9481483694        1.3434449700        0.4178284406
 H         -6.8678190694        2.2333302896        1.0430202812
 H         -8.0110483594        1.1578650401        0.2509798406
 C         -6.3472294093        0.1379146395        1.1540926897
 H         -7.1523621092       -0.4798729908        1.5581206593
 H         -5.7929381393       -0.4821601100        0.4458185892
 C         -5.4270750092        0.5005452987        2.3197272298
 H         -5.0309311691       -0.4255066916        2.7440226391
 H         -6.0025448392        1.0077674581        3.0972833803
 C         -4.2388607593        1.3907517490        1.9328274504
 H         -4.5775466393        2.4091718391        1.7432845212
 H         -3.5349483892        1.4058513184        2.7687602303
 H         -6.9518753796        2.3515922114       -1.4693166787
 H         -6.3155021796        0.7078938715       -1.5426816699
 H         -4.8651544895        3.0490744506       -0.2329678083
 H         -4.6397781497        2.5412614518       -1.9155147687
 O         -3.2359413596        0.6646257116       -1.6124338002
 C         -2.2511396995       -0.3058515984       -1.4848708510
 O         -1.7931097796       -0.7167758976       -2.5670367314
 H          0.3238705706        0.6202885204        0.3016416094
 C          0.9270712706        0.0033986709       -0.3531892011
 C          0.4933532506       -1.2811460189       -0.6596229620
 C          1.2864948205       -2.0663418783       -1.4853904726
 C          2.4617626405       -1.5617011679       -2.0163216424
 C          2.8767564104       -0.2750707281       -1.7291843115
 C          2.1013779205        0.5116428413       -0.8857129208
 N          2.5212896605        1.8142810211       -0.5705163399
 S          4.1350332805        2.0576295809       -0.2036629099
 O          4.1537312905        3.2090375403        0.6713969710
 O          4.8971065904        2.1829595318       -1.4212205098
 C          4.6460675106        0.5922449303        0.6772821790
 C          5.6818214706       -0.1779645793        0.1893234984
 C          6.0448439007       -1.3258441398        0.8756180575
 C          5.3659771608       -1.6837941907        2.0297109273
 C          4.3292355409       -0.8976713511        2.5092302580
 C          3.9641176107        0.2524775494        1.8290156688
 H          3.1643890508        0.8853777391        2.1797533694
 H          3.8009340509       -1.1770326617        3.4067204678
 H          5.6449785509       -2.5801869511        2.5605705066
 H          6.8515534907       -1.9379656095        0.5061121970
 H          6.1789604105        0.1352687113       -0.7142498515
 H          1.9170559905        2.2981924806        0.0764577205
 H          3.7783643404        0.1379796423       -2.1515367912
 H          3.0611030704       -2.1788433774       -2.6678333029
 H          0.9799654006       -3.0711938381       -1.7239146233
 C         -0.8001766893       -1.7598881594       -0.0476847322
 H         -0.6452023692       -1.8609152202        1.0371478377
 C         -1.2793314993       -3.0874573190       -0.5960542331
 C         -0.7798136392       -4.3733582894       -0.0105857741
 C         -2.1876433392       -3.9300159997        0.2469562063
 H         -2.9952193993       -4.4598394794       -0.2357092540
 H         -2.4373089892       -3.5587163904        1.2303460666
 H         -0.6218583893       -5.2132804890       -0.6700489247
 H         -0.0737329292       -4.3110281300        0.8033420759
 H         -1.4794706494       -3.0492717383       -1.6609018331
 O         -2.0895835892       -0.4380087410        2.1323083489
