  62
        -98.93801312
 C         -2.3978592460       -1.2079591989       -0.1014494514
 C         -3.1652480946       -0.4842231178        0.8372483913
 C         -4.0017789208        0.6135752455        0.3137176850
 C         -3.9810813639        0.8665780506       -1.0085442435
 C         -4.7078855855        1.9510375720       -1.7583690527
 C         -4.0545825889        3.3318983493       -1.5822060489
 C         -3.6225415401        3.6625821812       -0.1557565522
 H         -3.0712719898        4.6062810629       -0.1853799277
 H         -2.9296825530        2.8956707902        0.1965049140
 C         -4.7605364658        3.8188610091        0.8502162262
 H         -5.4227357399        4.6218027054        0.5188074818
 H         -4.3147626172        4.1272046434        1.7996220732
 C         -5.6046653268        2.5686021558        1.1051105387
 H         -6.3022656165        2.3949658356        0.2903896866
 H         -6.2096554086        2.7614789210        1.9959355217
 C         -4.8027679120        1.3027773448        1.3924106060
 H         -5.4863952058        0.5400274565        1.7849841519
 H         -4.0982795478        1.5029551285        2.2082285328
 H         -4.7514149575        4.0921413674       -1.9385707192
 H         -3.1641589247        3.3663666234       -2.2146541317
 H         -5.7520582149        1.9740350888       -1.4613133480
 H         -4.6682627290        1.6810589995       -2.8158122198
 O         -3.2106894281        0.1501436639       -1.8763268131
 C         -2.4034776090       -0.8922227317       -1.4596737722
 O         -1.7571255849       -1.4425333085       -2.3701357491
 O         -3.1483162961       -0.7326365363        2.0750698242
 C         -1.5172949101       -2.3448740945        0.3810325155
 C         -0.0684886534       -2.0609457562        0.0662949334
 C          0.8016647607       -3.0131699297       -0.4475910020
 C          2.1249154527       -2.6916566316       -0.6977437391
 C          2.6095596390       -1.4226454782       -0.4418728993
 C          1.7518503722       -0.4654151918        0.0847455170
 C          0.4295471751       -0.7926965293        0.3401201699
 H         -0.2360098647       -0.0450783066        0.7556760142
 N          2.2323282878        0.8316699383        0.3412917139
 S          3.6115906249        0.9839756365        1.2891581893
 O          3.7427584977       -0.1208735712        2.2106108899
 O          3.5231731466        2.3036723151        1.8755319287
 C          4.9473512521        0.9610910621        0.1128135195
 C          4.9400366148        1.9020924897       -0.8980843580
 C          5.9776392637        1.9050961583       -1.8164327652
 C          7.0006045244        0.9747824740       -1.7069842706
 C          6.9950873576        0.0388332134       -0.6841469154
 C          5.9591709555        0.0293775341        0.2370903276
 H          5.9095608150       -0.6823085623        1.0456795951
 H          7.7914719873       -0.6830588262       -0.6006376790
 H          7.8068605831        0.9799073892       -2.4233515136
 H          5.9850862013        2.6313002957       -2.6132414282
 H          4.1289690191        2.6095749765       -0.9452002823
 H          1.5177256945        1.4707420208        0.6585629469
 H          3.6368261576       -1.1665549653       -0.6434775720
 H          2.7875540378       -3.4409988387       -1.1029473956
 H          0.4433781816       -4.0076857399       -0.6562499791
 H         -1.6282729913       -2.3562560562        1.4763386637
 C         -2.0113069911       -3.6657220466       -0.1708598345
 C         -1.8146140928       -4.9321965832        0.6059645015
 C         -3.1814848966       -4.3299603907        0.4884941159
 H         -3.9133456465       -4.8226038928       -0.1337937906
 H         -3.6035446423       -3.8422391170        1.3553020896
 H         -1.6101876756       -5.8431890095        0.0640177267
 H         -1.3106551621       -4.8617747934        1.5581700488
 H         -1.9542385853       -3.7107311239       -1.2525906844
