  62
        -98.93580891
 C          0.9944846388        1.4395851564        0.9056755456
 C          1.8011182006        1.5125268177       -0.2567296034
 C          2.8602233407        0.4989466916       -0.3556192160
 C          3.0153516609       -0.4121982786        0.6211884770
 C          4.0763761478       -1.4783163432        0.6741981269
 C          3.7326116515       -2.7500236356       -0.1126778915
 C          3.7700361344       -2.6100957783       -1.6345877926
 H          4.7257254306       -2.1819661370       -1.9384283822
 H          3.7199740539       -3.6182298555       -2.0505693693
 C          2.6205604808       -1.7760265933       -2.2179065292
 H          1.8255743680       -1.6774458489       -1.4746356688
 H          2.1921118182       -2.2946114137       -3.0782968080
 C          3.0322139549       -0.3813893374       -2.6897139673
 H          2.1382501361        0.1418168056       -3.0391326836
 H          3.7236694385       -0.4670896598       -3.5311152429
 C          3.6895309032        0.4803136927       -1.6038342217
 H          4.6950822981        0.1180296994       -1.3913217029
 H          3.7566564679        1.5062523311       -1.9738071951
 H          2.7404293001       -3.0844819813        0.1921614606
 H          4.4538315421       -3.5170504439        0.1786003273
 H          4.1937862859       -1.7465101359        1.7262920731
 H          5.0207000573       -1.0684383739        0.3142195078
 O          2.2163448124       -0.4480152305        1.7219180658
 C          1.1794616735        0.4569136726        1.8782192530
 O          0.5047204327        0.2897938134        2.9152425945
 O          1.6570003063        2.3686184869       -1.1642638572
 C         -0.1742508997        2.3993859453        1.1019830277
 C         -1.0534771693        2.2807884828       -0.1207808900
 C         -1.2862471015        3.2289400079       -1.1072131864
 C         -2.0880529011        2.9267427956       -2.1965574322
 C         -2.6778572106        1.6855126572       -2.3328104793
 C         -2.4457387144        0.7204999762       -1.3582409524
 C         -1.6439391495        1.0272158420       -0.2740959717
 H         -1.4637849436        0.2716613934        0.4775201436
 N         -2.9863868968       -0.5677859954       -1.4729796631
 S         -3.4318142251       -1.4316361771       -0.1143859691
 O         -4.3355306486       -2.4437225806       -0.6204943935
 O         -3.9647764153       -0.5697370993        0.9148853854
 C         -1.9428038173       -2.2330849677        0.4399464327
 C         -1.5823107902       -2.1562412981        1.7699450951
 C         -0.4577431100       -2.8403848371        2.2022356159
 C          0.2790260768       -3.5913250576        1.3006446513
 C         -0.0912658707       -3.6533354849       -0.0350887328
 C         -1.2135641909       -2.9695043505       -0.4727826727
 H         -1.5353912799       -2.9988328084       -1.5005296475
 H          0.4894079095       -4.2337001872       -0.7347650480
 H          1.1461309136       -4.1323828885        1.6471575827
 H         -0.1587906110       -2.7711902550        3.2356812249
 H         -2.1744379495       -1.5546133820        2.4417563752
 H         -3.6257514501       -0.7023742178       -2.2421131884
 H         -3.2996403705        1.4571520309       -3.1849657792
 H         -2.2521547963        3.6779466264       -2.9545195241
 H         -0.8308944174        4.2010561938       -1.0629923529
 H         -0.7558165551        1.9731795797        1.9366891712
 C          0.3324001431        3.7391796983        1.6119085904
 C          0.9466320414        4.8200572305        0.7784157183
 C         -0.3780517089        5.0486953079        1.4449065485
 H         -0.4068256422        5.7154445909        2.2943405510
 H         -1.2735679908        5.0736386404        0.8457365675
 H          1.8118586990        5.3272351858        1.1815791298
 H          1.0019578960        4.6692833750       -0.2868642956
 H          0.8016626597        3.5825576320        2.5816656132
