  62
        -98.93889524
 C          0.6179819414        1.5302405898        0.3274911898
 C          1.1111515108        0.7370047692       -0.7345387400
 C          2.2893129103       -0.1060571814       -0.4379853400
 C          2.8002018705       -0.1249849514        0.8060924400
 C          3.9759462601       -0.8719139620        1.4026701400
 C          4.9241434195       -1.6708155528        0.5130330901
 C          5.8331901599       -0.8151087536       -0.3707647202
 H          6.5825391303       -0.3385766039        0.2662320396
 H          6.3589437094       -1.4731538141       -1.0658218101
 C          5.1377879105        0.2904548366       -1.1614922404
 H          4.6486752710        0.9832465771       -0.4740491405
 H          5.9071336808        0.8551208660       -1.6951482507
 C          4.1168032401       -0.1867046130       -2.1916626202
 H          4.5906410296       -0.8849170235       -2.8849504800
 H          3.7919560905        0.6848590870       -2.7668283504
 C          2.8604214897       -0.8533103421       -1.6095088498
 H          2.0856986996       -0.8473422418       -2.3828347998
 H          3.0533166691       -1.8923721222       -1.3540417296
 H          5.5677251392       -2.2506910730        1.1800576002
 H          4.3688401790       -2.3863633626       -0.0865566796
 H          4.5542149206       -0.1256509922        1.9571118098
 H          3.5494134298       -1.5441618815        2.1540930503
 O          2.2352709610        0.5933412992        1.8200032799
 C          1.1689152615        1.4431783898        1.6081543498
 O          0.8049140120        2.0676495303        2.6243840396
 H         -1.5224926795        0.2869912307       -1.0043468496
 C         -2.2213568791        0.7455876913       -0.3218785697
 C         -1.8731508883        1.9017394513        0.3621714400
 C         -2.8067904779        2.4864210021        1.2108817900
 C         -4.0629917382        1.9306867529        1.3684744103
 C         -4.4017923490        0.7678885129        0.7015302106
 C         -3.4721370295        0.1702080321       -0.1430227794
 N         -3.7877154403       -1.0227689978       -0.8057351390
 S         -2.6140375510       -2.1543811086       -1.1515514688
 O         -1.9278109709       -1.8174268294       -2.3714319290
 O         -3.3400171118       -3.4092807082       -1.1801784684
 C         -1.4720135509       -2.1852119490        0.2212985410
 C         -1.9239883306       -1.9974801384        1.5125145110
 C         -1.0211536805       -2.0924081686        2.5589958309
 C          0.3053636593       -2.4014799895        2.3034408709
 C          0.7392137290       -2.6081078201        1.0041632509
 C         -0.1539270911       -2.4884792199       -0.0483141491
 H          0.1493849887       -2.6138577303       -1.0755086691
 H          1.7678250988       -2.8607611008        0.8054025108
 H          1.0029227993       -2.4809726997        3.1224993008
 H         -1.3554551603       -1.9280453182        3.5707376709
 H         -2.9619053904       -1.7739039777        1.6967289511
 H         -4.6584907505       -1.4535431172       -0.5316086488
 H         -5.3759564793        0.3215315736        0.8305485508
 H         -4.7803209378        2.3979739135        2.0254027202
 H         -2.5370599073        3.3780551121        1.7566621797
 C         -0.5139076180        2.5336006704        0.1829938197
 H         -0.3753187074        3.2505111006        1.0046067495
 C         -0.4757895477        3.3009397101       -1.1257202505
 C         -1.0846813768        4.6677951904       -1.1899004508
 C          0.4045429031        4.5067115895       -1.2449637509
 H          0.9128524230        4.6820947689       -2.1811621411
 H          0.9806339433        4.7918135994       -0.3762718511
 H         -1.6044894468        4.9561027905       -2.0906439108
 H         -1.5158352565        5.0699334209       -0.2857979109
 H         -0.5706054882        2.6645057299       -1.9959084903
 O          0.6183722107        0.7176724492       -1.8934204900
