  62
        -98.94162173
 C          2.1119341214        0.8555218908        0.2828059915
 C          2.9708703713        0.2316623603        1.2228776812
 C          3.7241391301       -0.9345357648        0.7435171362
 C          3.5097479406       -1.3842938712       -0.5060080961
 C          4.2386633652       -2.5319256270       -1.1414167995
 C          5.4901250248       -2.0493256901       -1.8882642051
 C          6.3797736765       -1.1177028750       -1.0649789227
 H          5.8406731428       -0.1867055823       -0.8749911786
 H          7.2456303340       -0.8667535195       -1.6813188978
 C          6.8556020294       -1.7090729617        0.2693798818
 H          7.9204119857       -1.4972124336        0.3861164306
 H          6.7407519199       -2.7935028171        0.2555845068
 C          6.1509917612       -1.1410059609        1.5028009760
 H          6.1832723603       -0.0488984797        1.4725690935
 H          6.7064532312       -1.4598706832        2.3886706070
 C          4.6926998883       -1.5752170553        1.6974879288
 H          4.3813284373       -1.2585509802        2.6973754525
 H          4.6223139056       -2.6637250552        1.6449721913
 H          5.1717842114       -1.5148045880       -2.7863256741
 H          6.0644667408       -2.9238339291       -2.1991896432
 H          3.5649010117       -3.0156690709       -1.8509277899
 H          4.5157409523       -3.2501259866       -0.3719113441
 O          2.6218464252       -0.8086078956       -1.3548075283
 C          1.9055405781        0.3273063030       -0.9931761225
 O          1.1397670882        0.7411012377       -1.8821621428
 O          3.0958045128        0.6291748355        2.4125834384
 C          1.3323513996        2.0744371245        0.7449250919
 C         -0.1249990281        1.9147460223        0.3916848197
 C         -0.8288886239        2.7969114339       -0.4160212637
 C         -2.1596228361        2.5607601446       -0.7152966820
 C         -2.8159995419        1.4513829966       -0.2157977566
 C         -2.1202664146        0.5604216931        0.5911714850
 C         -0.7903974345        0.8026606993        0.8942816847
 H         -0.2458961028        0.1023072910        1.5173230695
 N         -2.7802801515       -0.5689110831        1.1111147108
 S         -3.5971513630       -1.5660659331        0.0326346853
 O         -3.6370906920       -2.8605911815        0.6795891131
 O         -3.0119096420       -1.5253219201       -1.2872746125
 C         -5.2429740612       -0.8871441030       -0.0027047422
 C         -5.9209708689       -0.7586272633        1.1938026147
 C         -7.2042687400       -0.2360482969        1.1822907194
 C         -7.7854947682        0.1440392279       -0.0183927726
 C         -7.0929326412        0.0050939157       -1.2114213805
 C         -5.8082164077       -0.5160364275       -1.2068700721
 H         -5.2280834128       -0.6368491375       -2.1080691472
 H         -7.5460754047        0.3005297589       -2.1440592638
 H         -8.7843300533        0.5509455270       -0.0246862876
 H         -7.7459296074       -0.1261596771        2.1078851960
 H         -5.4341037604       -1.0689515877        2.1031381896
 H         -2.2008508662       -1.1243601764        1.7244621930
 H         -3.8496684822        1.2610787224       -0.4542448849
 H         -2.6925936448        3.2499881231       -1.3524299227
 H         -0.3289464649        3.6542569279       -0.8353461793
 H          1.4167221255        2.0465841927        1.8447137334
 C          1.9242237491        3.4040904945        0.3032828742
 C          3.3914843199        3.5405446965        0.0297365219
 C          2.4070293969        3.6469602038       -1.0940794584
 H          2.2361114895        4.6194308872       -1.5323557284
 H          2.3333014668        2.8325149135       -1.7973309239
 H          3.8956287171        4.4353654420        0.3625452180
 H          3.9971771153        2.6481359932        0.0953763860
 H          1.4518043242        4.2421219292        0.8064745000
