  62
        -98.93834153
 C          1.9814998040        0.9652037651        0.1602391074
 C          2.4005207815       -0.2854252774       -0.3489689378
 C          3.7485655232       -0.7383165863        0.0457314315
 C          4.4986870625        0.0313225188        0.8555897273
 C          5.8749837703       -0.1870197947        1.4489526564
 C          6.7943796349       -1.2812361147        0.9128156387
 C          7.2999257232       -1.0520687552       -0.5111787637
 H          7.9934533000       -0.2073914180       -0.5017756250
 H          7.8591814386       -1.9374858880       -0.8214156439
 C          6.2247695543       -0.7529957449       -1.5528635939
 H          5.7252481376        0.1858211980       -1.3052783806
 H          6.7233902382       -0.6080027613       -2.5151016792
 C          5.1702713549       -1.8427140347       -1.7361241025
 H          5.6589003502       -2.7958743341       -1.9475124933
 H          4.5688790371       -1.5749587775       -2.6091194251
 C          4.2060716963       -2.0372589751       -0.5529845688
 H          3.3071588153       -2.5353855558       -0.9280722435
 H          4.6392402117       -2.6802060336        0.2094828771
 H          7.6665282583       -1.3043113155        1.5719653509
 H          6.3135064987       -2.2515579628        0.9952046862
 H          6.3867077172        0.7778001003        1.3742561791
 H          5.7115823745       -0.3661302443        2.5174944609
 O          4.0407525891        1.2237412101        1.3385638615
 C          2.7915157950        1.7157824260        1.0134940405
 O          2.5216624316        2.8159220706        1.5349639724
 H         -0.9343584417       -0.4813497281       -1.2064243437
 C         -1.1374548414       -0.2982022765       -0.1634959311
 C         -0.4376812855        0.6889350397        0.5123011867
 C         -0.7010600548        0.8863140161        1.8648031747
 C         -1.6397985930        0.1137521375        2.5228684085
 C         -2.3351804168       -0.8730924511        1.8457592637
 C         -2.0729240756       -1.0818096143        0.4988445872
 N         -2.7931211271       -2.0729377247       -0.1967643918
 S         -4.4619400144       -1.9365818353       -0.1307105557
 O         -4.9420040747       -2.4899384515        1.1107577841
 O         -4.9525414220       -2.5673778519       -1.3358000277
 C         -4.7614421302       -0.1777530363       -0.1674138640
 C         -5.2447177898        0.4628982248        0.9548232693
 C         -5.4020597145        1.8393846006        0.9244408306
 C         -5.0688639322        2.5475791827       -0.2194189616
 C         -4.5864069884        1.8888804975       -1.3401323537
 C         -4.4278765383        0.5132429501       -1.3155763007
 H         -4.0607298048       -0.0309210372       -2.1708739525
 H         -4.3280938961        2.4425198165       -2.2285914308
 H         -5.1855710156        3.6197297607       -0.2391126394
 H         -5.7778856648        2.3546060666        1.7936770903
 H         -5.4886076322       -0.1254607747        1.8240960430
 H         -2.4799951820       -2.1981422929       -1.1486692115
 H         -3.0728983903       -1.4858120017        2.3383866411
 H         -1.8337340633        0.2805288112        3.5714811630
 H         -0.1514100353        1.6521217319        2.3945963724
 C          0.6107585480        1.5371920943       -0.1645750997
 H          0.5874395951        2.5326379012        0.2982906291
 C          0.3953848138        1.6877332895       -1.6566349363
 C         -0.7786119784        2.4800199936       -2.1468572916
 C          0.6096084625        3.0238912506       -2.2981145619
 H          1.0473221071        3.0566208787       -3.2847361835
 H          0.9120121462        3.8417648623       -1.6605533587
 H         -1.2951423512        2.1414475052       -3.0319947876
 H         -1.4216314353        2.9251409099       -1.4027601494
 H          0.6914037859        0.8142753114       -2.2240422336
 O          1.6937990223       -1.0053175136       -1.1024134007
