  62
        -98.93704811
 C         -2.5021867387       -1.4592103724        0.1222282717
 C         -2.5189716032       -0.3948125849       -0.8105960623
 C         -3.5825359079        0.6077553163       -0.6284391502
 C         -4.4571892595        0.4662310294        0.3835545791
 C         -5.5402453745        1.4418179995        0.7466163454
 C         -4.9337356361        2.6460627415        1.4949883036
 C         -5.0420229943        3.9738104797        0.7449878136
 H         -6.0688151470        4.3387692392        0.8152026685
 H         -4.4002838240        4.6925989577        1.2589282734
 C         -4.6593678095        3.9360003679       -0.7376802836
 H         -5.4883186487        3.5322224727       -1.3208956071
 H         -4.5280807949        4.9715163776       -1.0587787309
 C         -3.3880737685        3.1498166002       -1.0841425538
 H         -2.7202208401        3.0938164093       -0.2236801379
 H         -2.8515752611        3.6967251242       -1.8626036368
 C         -3.6401925580        1.7306065739       -1.6271302366
 H         -4.6000094614        1.7054180778       -2.1507266931
 H         -2.8605839658        1.4953468043       -2.3579339449
 H         -5.4256212606        2.7589876261        2.4622247820
 H         -3.8833006889        2.4283631794        1.7005297445
 H         -6.0567431813        1.7700888990       -0.1525103210
 H         -6.2495757504        0.9157959663        1.3857280580
 O         -4.4055412752       -0.5679909024        1.2621900748
 C         -3.4306644804       -1.5442591025        1.1627056635
 O         -3.4966378250       -2.4259841537        2.0417798948
 O         -1.6996234818       -0.2791271781       -1.7610125532
 C         -1.4458563650       -2.5529284181        0.0660288196
 C         -0.1173866024       -1.9451983349        0.4453901841
 C          0.2062489702       -1.8045945476        1.7921709239
 C          1.3873123227       -1.1964459545        2.1735841599
 C          2.2653330569       -0.7058605741        1.2221113233
 C          1.9410471459       -0.8222506623       -0.1221723044
 C          0.7650277516       -1.4554139904       -0.5041126754
 H          0.5192980590       -1.5275099494       -1.5515521954
 N          2.8167080801       -0.3147651820       -1.0968169807
 S          3.4510390317        1.2236468855       -0.8771025024
 O          2.5781383865        2.0603985480       -0.0865429495
 O          3.7674148076        1.6964929351       -2.2073806297
 C          4.9724188529        0.9231007641        0.0005378772
 C          5.8680912568        0.0219840002       -0.5413176808
 C          7.0601436995       -0.2188450831        0.1226377540
 C          7.3368833443        0.4438856631        1.3092369815
 C          6.4296119610        1.3488615096        1.8382236484
 C          5.2347243338        1.5935451214        1.1790606921
 H          4.4972874573        2.2846720433        1.5558015612
 H          6.6466079533        1.8638865296        2.7602810060
 H          8.2650648935        0.2542064725        1.8248326373
 H          7.7682814760       -0.9216868450       -0.2858681400
 H          5.6163334037       -0.4691302529       -1.4662896838
 H          2.4706168081       -0.4245632578       -2.0394906298
 H          3.1825146998       -0.2202918907        1.5127032252
 H          1.6274245795       -1.0997601899        3.2215944902
 H         -0.4903119675       -2.1671185502        2.5356463917
 H         -1.7228101969       -3.2741955533        0.8461167277
 C         -1.4339442694       -3.2656597114       -1.2702166459
 C         -0.7092845928       -4.5712764766       -1.3938111639
 C         -2.2070321736       -4.5391575003       -1.4256968214
 H         -2.7083229236       -4.7249030797       -2.3638342261
 H         -2.7459997310       -4.9048292525       -0.5638554527
 H         -0.1800696378       -4.7836615074       -2.3100841999
 H         -0.2297272030       -4.9586810443       -0.5077082713
 H         -1.4185091772       -2.5934673077       -2.1187025099
