  62
        -98.94043202
 C          2.0438464792       -0.4553208463       -0.1048143115
 C          2.7078728078        0.7273683593       -0.5210841285
 C          4.0530156583        0.9506074624        0.0219209588
 C          4.5659316099        0.0558959321        0.8858529527
 C          5.9413357311        0.1277915901        1.4817563249
 C          6.9619070819       -0.6244046811        0.6163665928
 C          6.9002462065       -0.2608163585       -0.8671775825
 H          7.6841266360       -0.8276605182       -1.3741487317
 H          5.9447424965       -0.5960831841       -1.2769775600
 C          7.0791541417        1.2351375571       -1.1615232840
 H          7.7721560646        1.3472541707       -1.9980654837
 H          7.5286842743        1.7313286177       -0.3006204736
 C          5.7908727845        1.9634165787       -1.5495412850
 H          5.2878798907        1.4164662137       -2.3510435350
 H          6.0615816682        2.9462689384       -1.9446308830
 C          4.7836391691        2.1890883628       -0.4147941860
 H          5.2849472811        2.6598136072        0.4335709663
 H          4.0155692427        2.8755605619       -0.7832569495
 H          7.9615412298       -0.4170594368        1.0025778323
 H          6.7752293685       -1.6963042226        0.7142462453
 H          6.2333554788        1.1713596267        1.5825335058
 H          5.9111552809       -0.3289553554        2.4724658272
 O          3.8944124303       -1.0523109235        1.2821848016
 C          2.6204673810       -1.3431478295        0.8048264773
 O          2.1444648148       -2.3947063280        1.2676189392
 O          2.1945117774        1.5563644598       -1.3209539415
 C          0.6594314923       -0.6882850263       -0.6826182069
 C         -0.3960228989       -0.0725777135        0.1994374424
 C         -0.4583905143       -0.3634832929        1.5586584483
 C         -1.4400489947        0.2005965355        2.3529323819
 C         -2.3811146909        1.0579689533        1.8095903913
 C         -2.3303439132        1.3504244793        0.4536941654
 C         -1.3411630788        0.7863325970       -0.3416078098
 H         -1.2965115430        1.0318002516       -1.3940436065
 N         -3.3125708206        2.1928694160       -0.1058249594
 S         -4.8959335588        1.6597039473        0.0648994928
 O         -5.6414552877        2.3231259311       -0.9801540840
 O         -5.3362014514        1.9008639315        1.4148396974
 C         -4.7868853551       -0.0926657721       -0.2468799845
 C         -4.6814433422       -0.5163032453       -1.5570888061
 C         -4.4897201503       -1.8642433370       -1.8126901340
 C         -4.3930056217       -2.7594330719       -0.7581464547
 C         -4.5050001177       -2.3187712061        0.5510151906
 C         -4.7036719275       -0.9725644909        0.8132418286
 H         -4.7980577450       -0.5916565946        1.8166267913
 H         -4.4305322069       -3.0177202396        1.3684829311
 H         -4.2262116564       -3.8055820017       -0.9585273675
 H         -4.4067901651       -2.2118490159       -2.8299535709
 H         -4.7624234645        0.2105301403       -2.3497109423
 H         -3.1308585332        2.4323622826       -1.0703419617
 H         -3.1570237392        1.5013486083        2.4126356515
 H         -1.4740212376       -0.0307532819        3.4068169931
 H          0.2677165320       -1.0411237285        1.9816115125
 H          0.6596189617       -0.1292420531       -1.6318430643
 C          0.3706424773       -2.1465559810       -1.0138154761
 C         -0.6830549021       -2.9598104685       -0.3289525887
 C         -0.8923076805       -2.5054134307       -1.7398945889
 H         -0.8432400297       -3.2330291290       -2.5353245264
 H         -1.6099657191       -1.7152683800       -1.9036487584
 H         -0.4631453308       -3.9994460533       -0.1419432962
 H         -1.2689891228       -2.4924618200        0.4465888936
 H          1.2686479834       -2.6795842370       -1.3077137126
