  62
        -98.93930146
 C         -2.3639436397       -1.2710642092       -0.0719042597
 C         -3.3112528197       -0.7201753194        0.8273457004
 C         -4.1075655999        0.4199963606        0.3455938106
 C         -3.8922815801        0.8958104907       -0.8948750994
 C         -4.5614841303        2.0178199706       -1.6605302092
 C         -5.4118802604        3.0582990005       -0.9359544890
 C         -4.6384232904        3.9663905505        0.0190740709
 H         -5.3566560304        4.6063350804        0.5363355710
 H         -3.9809400505        4.6114584406       -0.5694484091
 C         -3.7738258401        3.2526851305        1.0557238208
 H         -3.2955603902        4.0173015506        1.6741024207
 H         -2.9732840101        2.7046606007        0.5531871906
 C         -4.5206344299        2.3007914304        1.9885754108
 H         -5.3480930899        2.8287845703        2.4662011509
 H         -3.8211669298        1.9949707204        2.7710766407
 C         -5.0669491998        1.0204857704        1.3321067608
 H         -6.0346659299        1.1940044703        0.8678484609
 H         -5.2076544996        0.2725839503        2.1176133007
 H         -6.2363755303        2.5774642503       -0.4180250890
 H         -5.8509248806        3.6930167605       -1.7105427590
 H         -5.1830586304        1.5316822306       -2.4207461492
 H         -3.7563919105        2.5265531108       -2.2006321093
 O         -2.9725442601        0.3296952308       -1.7286856895
 C         -2.1811299700       -0.7416779791       -1.3477825697
 O         -1.3870697700       -1.1127781789       -2.2355337598
 O         -3.4925350795       -1.1707119795        1.9895088104
 C         -1.5038186895       -2.4184932091        0.4352955701
 C         -0.1377496496       -1.8628872290        0.7558321599
 C          0.1510464306       -1.4316158090        2.0468097699
 C          1.3657877505       -0.8379725689        2.3375044398
 C          2.3118866504       -0.6499975787        1.3452347097
 C          2.0265188003       -1.0633916387        0.0511344897
 C          0.8189086303       -1.6840792588       -0.2329788802
 H          0.6001241302       -1.9800483088       -1.2474079502
 N          2.9719569501       -0.8394487685       -0.9710551104
 S          3.4180969299        0.7662053516       -1.2117706203
 O          2.3689600198        1.6767361714       -0.8116528501
 O          3.8499628197        0.8437904317       -2.5906207604
 C          4.8367557600        0.9677545217       -0.1530213805
 C          5.9176390801        0.1297523818       -0.3466981407
 C          7.0294212001        0.2729209319        0.4679164792
 C          7.0429297302        1.2478108518        1.4545463192
 C          5.9517780701        2.0843242517        1.6331724194
 C          4.8358026900        1.9455365116        0.8223957096
 H          3.9612801599        2.5677427915        0.9279946697
 H          5.9639393301        2.8422239916        2.3999381195
 H          7.9089450002        1.3567382919        2.0881093291
 H          7.8800030402       -0.3752613480        0.3318274690
 H          5.8667535700       -0.6108941381       -1.1270898107
 H          2.6892917400       -1.2422610785       -1.8543267104
 H          3.2559093303       -0.1765641586        1.5604414696
 H          1.5764154806       -0.5117213790        3.3445785498
 H         -0.5990403893       -1.5475241892        2.8161554400
 H         -1.9709218394       -2.7335811093        1.3776869201
 C         -1.4687333995       -3.6030938191       -0.5067057400
 C         -0.9713203093       -4.9210010990        0.0049164599
 C         -2.4277167493       -4.7343501792       -0.2935262999
 H         -2.8453392894       -5.2239530692       -1.1605094899
 H         -3.1141004893       -4.6581881393        0.5369864702
 H         -0.3861784393       -5.5425076189       -0.6552907103
 H         -0.6685015191       -4.9698328191        1.0398658298
 H         -1.2407757197       -3.3388454490       -1.5313133800
