  62
        -98.93723426
 C          1.4749529466        1.5592220662       -0.3080976553
 C          1.4111156444        0.2314908223        0.1864630932
 C          2.6618313605       -0.3034525857        0.7524833945
 C          3.7695034550        0.4571117385        0.7636959383
 C          5.1196520627        0.0041374238        1.2368784864
 C          5.9351245437       -0.6032274340        0.0863868290
 C          5.1714921720       -1.6444006590       -0.7323896550
 H          4.3475607688       -1.1525622091       -1.2543422904
 H          5.8556879490       -2.0213622275       -1.4958465323
 C          4.6215468115       -2.8197652076        0.0876634823
 H          5.1341938840       -2.8714818077        1.0489459958
 H          4.8374618123       -3.7485748724       -0.4446324946
 C          3.1100695744       -2.7781697993        0.3204142077
 H          2.5950418912       -2.6356248326       -0.6325099816
 H          2.8031712771       -3.7477830191        0.7207023796
 C          2.6169824237       -1.7037372838        1.2969505312
 H          1.5628858002       -1.9065442404        1.5070599157
 H          3.1772732096       -1.7698971345        2.2316504040
 H          6.8368607214       -1.0553275860        0.5037223635
 H          6.2397576952        0.2032862273       -0.5848296234
 H          5.6546438406        0.8689536541        1.6329453759
 H          4.9934011229       -0.7278550349        2.0322676426
 O          3.7927926880        1.7283408173        0.2867720391
 C          2.6570227146        2.3051861449       -0.2518181826
 O          2.8244387328        3.4786165859       -0.6455513392
 H         -1.7056171208        0.3919561887       -0.3658589792
 C         -1.7852533943        1.2926306304        0.2124524300
 C         -0.8756304738        2.3250108201        0.0424078920
 C         -1.0005837410        3.4507600892        0.8557094379
 C         -2.0014785249        3.5393018215        1.8041545990
 C         -2.9087794804        2.5071033343        1.9639237173
 C         -2.7918679676        1.3762829057        1.1655494904
 N         -3.6609336587        0.2925043963        1.3316977229
 S         -4.0491554490       -0.7209067071        0.0648273663
 O         -4.1993491151        0.0140293077       -1.1705405979
 O         -5.2340908096       -1.4176482757        0.5247291581
 C         -2.7084503325       -1.8839536500       -0.0481627945
 C         -2.2703470636       -2.2840372064       -1.2937969073
 C         -1.2428607456       -3.2096521921       -1.3764742198
 C         -0.6774069847       -3.7174482850       -0.2186406177
 C         -1.1347751734       -3.3100404044        1.0242609411
 C         -2.1616822998       -2.3859801863        1.1145774010
 H         -2.5321543421       -2.0379742288        2.0647257879
 H         -0.6866663428       -3.7027647990        1.9233670621
 H          0.1317285629       -4.4278691398       -0.2859928301
 H         -0.8802413903       -3.5205927559       -2.3436263782
 H         -2.7253250749       -1.8500363395       -2.1707749085
 H         -4.4231699423        0.4285321676        1.9776532266
 H         -3.6922298866        2.5707131542        2.7038086721
 H         -2.0790431183        4.4208568181        2.4225993013
 H         -0.2914555589        4.2593010995        0.7425348951
 C          0.2802672341        2.2836368408       -0.9253476508
 H          0.6269136971        3.3230671031       -1.0283655720
 C          0.0177883636        1.8142627818       -2.3541640298
 C         -0.3554942507        0.4179804161       -2.7503421822
 C         -1.3359394493        1.5360436950       -2.9360248683
 H         -1.5298677800        1.8800099515       -3.9418886906
 H         -2.2022447575        1.5686167008       -2.2931890723
 H          0.1211569710        0.0018585740       -3.6272680249
 H         -0.5230290891       -0.3050777522       -1.9690290611
 H          0.7208514979        2.2992760065       -3.0278950604
 O          0.3871871259       -0.4943292325        0.1691084467
