  62
        -98.94445625
 C         -2.7032763686       -1.0383361824        0.1559999125
 C         -2.4846481044       -0.1459797215       -0.9222292017
 C         -3.0372734121        1.2068803172       -0.7584506369
 C         -3.7478193327        1.5067089231        0.3430471103
 C         -4.3108529165        2.8600312682        0.6632087479
 C         -3.3209729167        3.6873533534        1.4953029021
 C         -1.9001804926        3.7101749313        0.9300156173
 H         -1.3019232860        4.3522470268        1.5802763131
 H         -1.4676114394        2.7081288742        0.9895681726
 C         -1.7971444087        4.2145553086       -0.5160043485
 H         -2.6980902422        4.7696683275       -0.7813960577
 H         -0.9548467665        4.9061077515       -0.5849405390
 C         -1.5525949796        3.1176263566       -1.5544750401
 H         -1.2713876661        3.5981366943       -2.4960800397
 H         -0.7043480865        2.5004272661       -1.2414205878
 C         -2.7493093476        2.2021650123       -1.8463637574
 H         -3.6315043757        2.8085301643       -2.0619033778
 H         -2.5091991951        1.6149134162       -2.7375830148
 H         -3.2795402305        3.2670615210        2.5026761510
 H         -3.7000558969        4.7083231539        1.5674020574
 H         -4.5461529200        3.3792204363       -0.2636014596
 H         -5.2287628688        2.7236437816        1.2374012430
 O         -3.9945857540        0.6051286575        1.3267241810
 C         -3.4478353766       -0.6645987073        1.2793947295
 O         -3.7033574949       -1.3676168462        2.2769813206
 H         -0.0628999221       -1.7831312458       -1.5083731454
 C          0.2802281095       -1.8602123160       -0.4883480705
 C         -0.6112351851       -2.2235529557        0.5107297978
 C         -0.1516366095       -2.2783975034        1.8227858287
 C          1.1620772849       -1.9672619586        2.1242728757
 C          2.0379965587       -1.5712136022        1.1282712554
 C          1.5847979901       -1.5060180998       -0.1818671600
 N          2.4538456679       -1.0351257483       -1.1924579344
 S          2.8788736083        0.5874736625       -1.0126520637
 O          1.8647632963        1.3268949572       -0.2961756364
 O          3.2036340284        1.0566609385       -2.3424574287
 C          4.3743533858        0.5078492066       -0.0487217541
 C          5.4370347589       -0.2115896726       -0.5600523265
 C          6.6095467922       -0.2864153607        0.1744476068
 C          6.6999001861        0.3577565481        1.3996725288
 C          5.6251117159        1.0781603430        1.8977620147
 C          4.4485012676        1.1556371010        1.1683901620
 H          3.5841011517        1.6974897689        1.5179538902
 H          5.6968817839        1.5782206007        2.8503012721
 H          7.6133297061        0.2980936691        1.9700785772
 H          7.4473860996       -0.8459519896       -0.2091826229
 H          5.3242315088       -0.6933115266       -1.5168431706
 H          2.0672903789       -1.1655436082       -2.1181979878
 H          3.0560947181       -1.3012679637        1.3581598661
 H          1.5036204095       -2.0176406309        3.1469863383
 H         -0.8455032462       -2.5411914194        2.6088937637
 C         -2.0765461437       -2.4259566270        0.2094696956
 H         -2.5363335526       -2.9306267368        1.0689434758
 C         -2.3344916247       -3.2533382419       -1.0318580696
 C         -2.0860242634       -4.7301571349       -0.9803948668
 C         -3.4889362876       -4.2078395908       -1.0452765966
 H         -4.0443954127       -4.3294423387       -1.9630950606
 H         -4.0987339438       -4.2672556343       -0.1555163144
 H         -1.6766147333       -5.2147207105       -1.8534527530
 H         -1.7427464350       -5.1445490305       -0.0445536484
 H         -2.1152204873       -2.7346891258       -1.9556224251
 O         -1.8652821125       -0.4418409613       -1.9794742919
