  62
        -98.94169542
 C          1.9294133321        1.0795935697       -0.0372351400
 C          2.1548323607       -0.2825749047       -0.3549984129
 C          3.3932924414       -0.8704522840        0.1835473565
 C          4.1940935134       -0.1320984981        0.9715626309
 C          5.4968244800       -0.5971123533        1.5533270765
 C          6.6720832406       -0.2627814624        0.6241534565
 C          6.4478441162       -0.6800138371       -0.8292852510
 H          5.6341650088       -0.0842467637       -1.2491923120
 H          7.3529341566       -0.4240930299       -1.3843132967
 C          6.1348983760       -2.1706303655       -1.0207018615
 H          6.7251815901       -2.5474426782       -1.8586920687
 H          6.4380841587       -2.7296033633       -0.1346448214
 C          4.6692913470       -2.4760494350       -1.3354204433
 H          4.6026498219       -3.5163638709       -1.6649863380
 H          4.3349021566       -1.8482306976       -2.1651459004
 C          3.6855535849       -2.3016948869       -0.1714058313
 H          2.7293074586       -2.7363975138       -0.4773312564
 H          4.0471326284       -2.8496306104        0.7012163243
 H          7.5678494536       -0.7518090706        1.0112553733
 H          6.8367400775        0.8169258675        0.6491527749
 H          5.4499702635       -1.6707268396        1.7256115358
 H          5.6453058394       -0.0916135645        2.5091166209
 O          3.9218380843        1.1574402829        1.2954164871
 C          2.8027514807        1.7945495842        0.7888076153
 O          2.6927994926        2.9865449592        1.1388104826
 O          1.3759632162       -0.9927135031       -1.0427638316
 C          0.7334037315        1.8698895566       -0.5460517228
 C         -0.4736385145        1.6667410276        0.3324490592
 C         -1.1873263489        2.7501862530        0.8300608299
 C         -2.3047096244        2.5539065514        1.6236370241
 C         -2.7343462956        1.2759755944        1.9330240402
 C         -2.0282222060        0.1864875908        1.4388121754
 C         -0.9079313614        0.3855685202        0.6453017417
 H         -0.3657354571       -0.4650900960        0.2593011292
 N         -2.4605310757       -1.1219852212        1.7370713875
 S         -4.0304034782       -1.5132798884        1.2986623930
 O         -4.9480266306       -0.8494039265        2.1899953728
 O         -4.0806490205       -2.9572743460        1.2899871339
 C         -4.2090398753       -0.8704289934       -0.3543346074
 C         -4.7454895388        0.3873104301       -0.5443388333
 C         -4.8010866788        0.9027613024       -1.8294925483
 C         -4.3239604510        0.1564518830       -2.8956511288
 C         -3.7941320705       -1.1080580288       -2.6886841095
 C         -3.7281116846       -1.6258511823       -1.4054202266
 H         -3.3224309906       -2.6043826179       -1.2033767694
 H         -3.4236786809       -1.6874301062       -3.5189220521
 H         -4.3629070137        0.5623107975       -3.8938811833
 H         -5.2121798625        1.8855889993       -1.9938373283
 H         -5.1125867689        0.9326292986        0.3091627818
 H         -1.8254794999       -1.8295672645        1.3949552595
 H         -3.6036362937        1.1036442229        2.5469358232
 H         -2.8458828032        3.4050234070        2.0079068805
 H         -0.8524110456        3.7516112406        0.6026264076
 H          1.0324235113        2.9258236906       -0.4553835891
 C          0.4397010618        1.6118793624       -2.0191615657
 C         -0.7524338271        0.8556536880       -2.5143936722
 C         -0.6833526286        2.3397619643       -2.6976326844
 H         -0.5189685648        2.7363913503       -3.6877746967
 H         -1.3244286419        2.9467331867       -2.0764512016
 H         -0.6140213799        0.2157661241       -3.3721006922
 H         -1.4504465390        0.4639402310       -1.7917188358
 H          1.3542355802        1.4894841144       -2.5912014396
