  62
        -98.94008561
 C         -1.9558764786       -1.4079680875       -0.0063856594
 C         -1.7646385289       -0.0655894797       -0.4164966887
 C         -2.9914229100        0.6975344594       -0.6991041017
 C         -4.1902563957        0.1034606462       -0.5644365467
 C         -5.5136357254        0.7794955903       -0.7729476491
 C         -6.0448603832        1.3742864991        0.5386698728
 C         -5.0178336496        2.2173086603        1.2948848896
 H         -5.5126445480        2.6107862670        2.1855752259
 H         -4.2075059380        1.5700601565        1.6386026486
 C         -4.4271772602        3.3786656377        0.4831003393
 H         -5.0683378414        3.5965264645       -0.3719177877
 H         -4.4111943342        4.2717461533        1.1114714505
 C         -2.9943180745        3.1507500443       -0.0024129453
 H         -2.3670482245        2.8413703258        0.8378802510
 H         -2.6039218858        4.1051408106       -0.3659706048
 C         -2.8268666664        2.1271290906       -1.1324947966
 H         -3.5112019280        2.3653544887       -1.9492685369
 H         -1.8020458629        2.2135205109       -1.5048058824
 H         -6.9219016209        1.9831704084        0.3118616970
 H         -6.3598071582        0.5544379229        1.1885926180
 H         -5.4032650075        1.5623398543       -1.5207527233
 H         -6.2253618000        0.0374635798       -1.1389536271
 O         -4.3346717144       -1.1865260298       -0.1664448433
 C         -3.2296541507       -1.9622084280        0.1445139631
 O         -3.5059732105       -3.1115403697        0.5419655600
 H          1.9559826696       -2.0230706607        0.0389369589
 C          1.5696131430       -1.5116352778        0.9067935004
 C          0.2142231009       -1.5524418682        1.1941242356
 C         -0.2427229517       -0.8704376685        2.3196677038
 C          0.6232554778       -0.1424198947        3.1115987444
 C          1.9748957627       -0.0964245556        2.8153030537
 C          2.4447621091       -0.7896555178        1.7101516404
 N          3.8271277680       -0.7583310915        1.4219747530
 S          4.4774968397        0.6834319398        0.8693659729
 O          5.9088043737        0.4812761053        0.8366112433
 O          4.0008773325        1.7586758003        1.6998536204
 C          3.8701865583        0.8514831017       -0.8000829114
 C          2.5377819801        1.1499958275       -1.0016654090
 C          2.0583376740        1.2138647048       -2.3002679242
 C          2.9105256574        0.9815508905       -3.3681883138
 C          4.2476711751        0.6853236810       -3.1481550623
 C          4.7330587187        0.6134239168       -1.8527768670
 H          5.7633193142        0.3828907085       -1.6338816459
 H          4.9093892624        0.5058710617       -3.9803889337
 H          2.5292123603        1.0294904326       -4.3762428767
 H          1.0129384079        1.4278497613       -2.4545252594
 H          1.8801273951        1.3145603727       -0.1636773048
 H          4.1240249479       -1.5043600354        0.8076716810
 H          2.6639903569        0.4784300915        3.4118685187
 H          0.2456673927        0.3921887321        3.9706130730
 H         -1.2982324737       -0.9051525071        2.5562962636
 C         -0.7843807251       -2.3072873882        0.3496853715
 H         -1.2195000711       -3.1011009433        0.9796087712
 C         -0.1532984651       -3.0023372155       -0.8495185677
 C         -0.8974778325       -3.1635547377       -2.1406583563
 C          0.2790418086       -2.2399615211       -2.0655290941
 H          1.1932761113       -2.5330205662       -2.5613034180
 H          0.1009362714       -1.1767748952       -2.0693915514
 H         -1.8858573853       -2.7328997529       -2.2098410210
 H         -0.7910707052       -4.0949479994       -2.6765294527
 H          0.4671909610       -3.8424720788       -0.5523467551
 O         -0.6395071297        0.4793951678       -0.5440868672
