  62
        -98.94365408
 C         -2.6345732864       -0.1367679091       -0.2057238475
 C         -2.1671634125       -0.9235799562        0.8763745202
 C         -1.7452851428       -2.2935829196        0.5393794837
 C         -1.7921521573       -2.7113204256       -0.7372368140
 C         -1.3542674890       -4.0635950328       -1.2200983883
 C          0.1187029909       -4.0611743956       -1.6490528920
 C          1.0679796142       -3.4491932579       -0.6179750543
 H          2.0828015230       -3.5590012960       -1.0084835977
 H          0.8773103819       -2.3756420002       -0.5404241980
 C          0.9880588977       -4.0830445067        0.7775590979
 H          0.5184675065       -5.0660639431        0.7124957233
 H          2.0038649112       -4.2301416277        1.1506701114
 C          0.2542719272       -3.2356500119        1.8189965735
 H          0.4632281625       -3.6557815958        2.8071709831
 H          0.6515281276       -2.2171261080        1.8066588710
 C         -1.2709065057       -3.1648408943        1.6683624749
 H         -1.6795017089       -4.1737668555        1.5724000371
 H         -1.6722818178       -2.7153868593        2.5816033455
 H          0.4176450452       -5.0913824775       -1.8537604601
 H          0.2091060976       -3.4875842195       -2.5744033118
 H         -1.5109664748       -4.7924635135       -0.4270247108
 H         -1.9716805217       -4.3348216996       -2.0785574126
 O         -2.2316157218       -1.9251153823       -1.7533903554
 C         -2.6406939311       -0.6261653646       -1.5146132130
 O         -3.0077374471       -0.0115080262       -2.5383904346
 O         -2.1046857370       -0.5321418759        2.0724334676
 C         -3.0668951121        1.3149178915       -0.0754037700
 C         -1.8853630846        2.2364227844       -0.2799169481
 C         -2.0223637720        3.4319254753       -0.9768569544
 C         -0.9274364158        4.2478623928       -1.1971391788
 C          0.3297451996        3.8732122611       -0.7574893654
 C          0.4749693100        2.6834774358       -0.0542459814
 C         -0.6340834576        1.8927252465        0.2061185920
 H         -0.4997568681        0.9810706116        0.7675816846
 N          1.7308992984        2.2458337185        0.3980635319
 S          2.0258175920        0.5813876961        0.2761289535
 O          1.4179705829        0.0626911615       -0.9279380675
 O          1.6528398394       -0.0457324982        1.5175676004
 C          3.8029622862        0.5741861030        0.1244815054
 C          4.5698788640        0.6540566730        1.2716055970
 C          5.9502736711        0.6871635335        1.1531757690
 C          6.5373372469        0.6408949606       -0.1026925205
 C          5.7547141140        0.5582190810       -1.2446608354
 C          4.3733873373        0.5262250169       -1.1332871956
 H          3.7238147880        0.4535073994       -1.9910592592
 H          6.2134585186        0.5181287106       -2.2194453001
 H          7.6118183116        0.6662326184       -0.1920731718
 H          6.5617540767        0.7481759046        2.0388565427
 H          4.0676883996        0.6776428954        2.2247224680
 H          2.4967215492        2.7905754141        0.0248651192
 H          1.1912357861        4.4914110598       -0.9597304860
 H         -1.0481274226        5.1724310628       -1.7408651616
 H         -2.9907796122        3.7090378665       -1.3654487239
 H         -3.7684409331        1.4951534560       -0.9031900063
 C         -3.7718490424        1.6444763220        1.2256761097
 C         -4.7905175928        2.7426391160        1.2542586304
 C         -5.2247303653        1.3137796045        1.3788390593
 H         -5.5700862489        0.9541294545        2.3360605493
 H         -5.7216416166        0.8558389876        0.5356658359
 H         -4.8392054350        3.3728911060        2.1287283569
 H         -5.0068166812        3.2548163864        0.3292239066
 H         -3.1406049229        1.5182239612        2.0954563341
