  62
        -98.94340243
 C          1.9540269741        0.8613247550        0.0450116091
 C          2.2370321504       -0.1102300802        1.0326100459
 C          2.5501277187       -1.4571902510        0.5401491614
 C          2.5098204500       -1.6981780505       -0.7831933709
 C          2.8470520498       -3.0122134059       -1.4254343225
 C          4.3358918403       -3.0877545209       -1.7925824657
 C          5.2735276372       -2.6862737346       -0.6540364909
 H          6.2963531006       -2.8044785729       -1.0178323598
 H          5.1303435663       -1.6262158840       -0.4326542982
 C          5.0915539094       -3.5008087658        0.6342249433
 H          4.5503210433       -4.4222043930        0.4168002166
 H          6.0760832717       -3.7834186042        1.0125825704
 C          4.3799010394       -2.7516887798        1.7623373604
 H          4.4951783344       -3.3310006171        2.6822700144
 H          4.8624990885       -1.7841702623        1.9219400117
 C          2.8781883459       -2.5111658240        1.5601568947
 H          2.4667686446       -2.1477538662        2.5068808668
 H          2.3817696243       -3.4522822106        1.3131571481
 H          4.5610722819       -4.1074416799       -2.1100635888
 H          4.5171273673       -2.4195535354       -2.6374457864
 H          2.2497096561       -3.1114374393       -2.3333266428
 H          2.5865677571       -3.8191990674       -0.7431938303
 O          2.2023138830       -0.7471918085       -1.7015577263
 C          1.9153476478        0.5529094536       -1.3144983949
 O          1.6518945028        1.3236318537       -2.2575274780
 O          2.2296579852        0.1396435378        2.2704547124
 C          1.6102472823        2.2730013055        0.4771184537
 C          0.2261820175        2.6592149894        0.0128903921
 C         -0.1060310862        3.9562264381       -0.3590020591
 C         -1.3976233575        4.2633408659       -0.7506545737
 C         -2.3806401783        3.2923601579       -0.7797850611
 C         -2.0573477674        1.9891635647       -0.4146446761
 C         -0.7675915242        1.6892800356       -0.0094933357
 H         -0.5322655056        0.6761818807        0.2843825099
 N         -3.0211901594        0.9710390861       -0.4865768522
 S         -2.8414022278       -0.4438384271        0.4041343174
 O         -2.6126288182       -0.1370777754        1.7994197525
 O         -1.8615094224       -1.2848199412       -0.2384625782
 C         -4.4682891161       -1.1424466706        0.1935005923
 C         -5.4241006505       -0.9429788440        1.1717925964
 C         -6.6948795801       -1.4637975890        0.9841187891
 C         -6.9877377258       -2.1686615801       -0.1736683807
 C         -6.0178660747       -2.3617938233       -1.1463587492
 C         -4.7451238497       -1.8444847737       -0.9643706945
 H         -3.9559583433       -1.9753846026       -1.6866177331
 H         -6.2477202617       -2.9130530413       -2.0438478019
 H         -7.9771187219       -2.5729884092       -0.3177744214
 H         -7.4495875114       -1.3183462875        1.7400143422
 H         -5.1469249281       -0.3967492579        2.0590257875
 H         -3.9722992566        1.3113207374       -0.4874601843
 H         -3.3853220207        3.5322243379       -1.0919663222
 H         -1.6418306627        5.2750884626       -1.0368590356
 H          0.6479635243        4.7261736014       -0.3438803531
 H          1.6016349551        2.2476215711        1.5784274940
 C          2.6836294005        3.2411379247        0.0202648395
 C          3.0436803740        4.4321948959        0.8558824097
 C          3.9873017970        3.2726823162        0.7586317711
 H          4.8988386142        3.3907333562        0.1923189919
 H          4.0852414287        2.6185679145        1.6130741904
 H          3.3112620934        5.3506311924        0.3554359873
 H          2.5109122180        4.5714541917        1.7845235149
 H          2.7162291536        3.3401446937       -1.0590619848
