  62
        -98.93482689
 C         -1.0300474695       -1.6445951548        0.1911681680
 C         -1.9497417675       -1.0859271449        1.1114900057
 C         -2.8829846406       -0.0679461127        0.5953663234
 C         -2.7762221800        0.3178576360       -0.6884344430
 C         -3.6285234668        1.3025737882       -1.4477959580
 C         -3.9274718053        2.6339782586       -0.7404447708
 C         -5.3904546180        2.7791728988       -0.3181396482
 H         -5.6233376231        3.8420739658       -0.2223503591
 H         -6.0238872023        2.3781563172       -1.1122061749
 C         -5.7538588738        2.1076420970        1.0052632054
 H         -5.3133143465        2.6724631027        1.8298229946
 H         -6.8392073166        2.1652055764        1.1172978342
 C         -5.3251808103        0.6447680724        1.1412888625
 H         -5.4930894920        0.1074729721        0.2086894209
 H         -5.9654811629        0.1798595068        1.8942041499
 C         -3.8687775555        0.4689652470        1.5972384305
 H         -3.4862539044        1.4150278531        1.9918603664
 H         -3.8297420848       -0.2393408470        2.4308529785
 H         -3.2726403741        2.7500033144        0.1219101044
 H         -3.6996290977        3.4440470863       -1.4353240300
 H         -3.0940785690        1.4839567467       -2.3827348817
 H         -4.5656209285        0.8104587689       -1.7189581471
 O         -1.8293401017       -0.1949153124       -1.5208229449
 C         -0.9279130298       -1.1679925821       -1.1165464315
 O         -0.1187504613       -1.4990759008       -2.0000281103
 H          1.2566794407       -0.6849416645        1.7607672966
 C          1.8667926964       -1.2071134678        1.0334091147
 C          1.3386433499       -2.3161893817        0.3828310841
 C          2.1244093205       -2.9712524174       -0.5551634212
 C          3.4024991514       -2.5190700599       -0.8360491354
 C          3.9266545957       -1.4176756984       -0.1839879097
 C          3.1487847311       -0.7580760481        0.7589283265
 N          3.6775844615        0.3675703776        1.4311522087
 S          3.9506732737        1.7330880471        0.5019252104
 O          4.9113016257        1.4152102171       -0.5221064793
 O          4.3267484874        2.7681598789        1.4378485887
 C          2.3717847156        2.1243603930       -0.2285319457
 C          1.9668834204        1.4444335614       -1.3595374090
 C          0.7204830619        1.7235814562       -1.8967094926
 C         -0.0958752902        2.6664748875       -1.2920262442
 C          0.3214695319        3.3344295405       -0.1510360105
 C          1.5664442170        3.0600133008        0.3903738894
 H          1.9355064987        3.5614533353        1.2708814686
 H         -0.3190409615        4.0660797802        0.3152377543
 H         -1.0654767366        2.8795389873       -1.7123828596
 H          0.3865555814        1.1857037659       -2.7696380426
 H          2.6219128000        0.7131131641       -1.8047491290
 H          3.1354148798        0.6315973097        2.2424988467
 H          4.9137695224       -1.0447792241       -0.4039510009
 H          3.9991990841       -3.0310705318       -1.5757504929
 H          1.7240693202       -3.8192476127       -1.0859072396
 C         -0.0786570794       -2.7105596302        0.7066982006
 H         -0.1978401350       -2.6712374717        1.8021321165
 C         -0.4233272647       -4.1317863312        0.2904301779
 C         -1.8528253356       -4.5522742237        0.1273547704
 C         -0.9500826031       -4.4871780044       -1.0661441676
 H         -0.6237596512       -5.4167076534       -1.5097453332
 H         -1.0903167245       -3.6908704240       -1.7791639103
 H         -2.6101006113       -3.7892100368        0.2358743125
 H         -2.1520122006       -5.5209845007        0.4983530711
 H          0.2401330773       -4.8549304610        0.7554919332
 O         -1.9946105329       -1.4272783095        2.3251140818
