  62
        -98.94037406
 C          2.6348173104        1.3162575112       -0.1619220489
 C          2.4074501612        0.1398843513       -0.9157586393
 C          3.5725082216       -0.7391186881       -1.0943030992
 C          4.7567415813       -0.3826930178       -0.5641592687
 C          6.0079430717       -1.2092053772       -0.6239274486
 C          6.1216930117       -2.1320626676        0.5975126211
 C          4.8515441719       -2.9317331782        0.8883244205
 H          4.0544369515       -2.2446851486        1.1826610004
 H          5.0586418519       -3.5693778584        1.7505729703
 C          4.3647187027       -3.7975253281       -0.2820539499
 H          4.0943919730       -4.7837532483        0.1011124197
 H          5.1736203729       -3.9390308075       -0.9997564997
 C          3.1339882127       -3.2503961084       -1.0078719002
 H          2.3501828023       -3.0196266089       -0.2810140304
 H          2.7484577632       -4.0366162183       -1.6626852206
 C          3.3683978924       -2.0068568280       -1.8749455997
 H          2.4673961525       -1.8472845882       -2.4744962600
 H          4.2063385027       -2.1832130074       -2.5524298395
 H          6.3486415311       -1.5206054278        1.4738752514
 H          6.9555922420       -2.8174652872        0.4360361012
 H          6.0049380322       -1.7983764870       -1.5387446988
 H          6.8653371114       -0.5343121469       -0.6389424781
 O          4.9390592006        0.7642482621        0.1388548817
 C          3.8843068901        1.6303365415        0.3731786216
 O          4.1806005395        2.6299441914        1.0584187920
 H         -1.1566302397        1.8162286897       -0.5446025700
 C         -0.8777230798        1.3935115495        0.4076644500
 C          0.4142442700        1.5483432199        0.8798553404
 C          0.7471443898        0.9809651596        2.1078319904
 C         -0.1891336901        0.2745039990        2.8367003698
 C         -1.4796496299        0.1185010786        2.3599242594
 C         -1.8215289597        0.6782018188        1.1375080594
 N         -3.1349209795        0.5521399084        0.6490375190
 S         -3.9337248090       -0.9205115520        0.8608150782
 O         -4.4090056594       -0.9888746526        2.2207085381
 O         -3.0998021483       -2.0196400815        0.4290304782
 C         -5.3125514687       -0.7018572722       -0.2462575121
 C         -6.4012395591        0.0301736272        0.1884659877
 C         -7.4630155489        0.2297012270       -0.6791808325
 C         -7.4187977083       -0.3028290226       -1.9591909727
 C         -6.3201235378       -1.0367221720       -2.3803296726
 C         -5.2535867980       -1.2385420918       -1.5181812223
 H         -4.3817658177       -1.8072712413       -1.8003981722
 H         -6.2895158773       -1.4517179017       -3.3749664627
 H         -8.2467150981       -0.1471434127       -2.6327397029
 H         -8.3200129193        0.7979361565       -0.3555628126
 H         -6.3945157296        0.4166314469        1.1940758979
 H         -3.2088827893        0.8598097687       -0.3114293210
 H         -2.2165583798       -0.4404112019        2.9135514390
 H          0.0855170498       -0.1638889012        3.7848281998
 H          1.7577631297        1.0958401700        2.4773956007
 C          1.4909534999        2.2775575206        0.1128762810
 H          1.9022545394        3.0597467406        0.7665374714
 C          1.0143506101        2.9181086008       -1.1731603389
 C          0.2955243795        4.2323575005       -1.1336615287
 C          1.6970342297        4.1598183912       -1.6590891683
 H          1.8586010600        4.2771490716       -2.7201459582
 H          2.4960289393        4.5572190114       -1.0501906579
 H          0.1397231490        4.6862047601       -0.1667587187
 H         -0.5052716704        4.4051342803       -1.8366858090
 H          0.7160694306        2.1904134309       -1.9188940993
 O          1.2932808015       -0.1621453290       -1.4190849298
