  62
        -98.93832821
 C         -2.2556156392       -1.0019319291        0.3835239321
 C         -2.4770988593       -0.1133727808       -0.6938673592
 C         -3.3334962794        1.0551489496       -0.4158198310
 C         -3.8348588295        1.2299964814        0.8210879387
 C         -4.6947447796        2.3332913821        1.4025032771
 C         -5.4093926997        3.3293006607        0.4928087456
 C         -6.5272678796        2.7294657293       -0.3595552035
 H         -7.3526206696        2.4476470102        0.2991656969
 H         -6.8926448697        3.5041263282       -1.0371870747
 C         -6.1469288495        1.4955291181       -1.1740851816
 H         -7.0349127595        1.1719122072       -1.7238612112
 H         -5.8724810394        0.6813186192       -0.5002053004
 C         -5.0228926895        1.7014747667       -2.1875428920
 H         -5.2701395696        2.5361220057       -2.8462992732
 H         -4.9630387994        0.7979617758       -2.8001173806
 C         -3.6272410495        1.9462004978       -1.5881833723
 H         -2.8831466095        1.7000274467       -2.3513927020
 H         -3.4883560197        2.9912336782       -1.3220749439
 H         -5.8611137498        4.0789370116        1.1483121445
 H         -4.6908553997        3.8510831698       -0.1323206152
 H         -5.4346817895        1.8312138730        2.0340565778
 H         -4.0411057396        2.8923181032        2.0815542262
 O         -3.5592146594        0.3612218429        1.8399750600
 C         -2.7780626492       -0.7650752473        1.6521247317
 O         -2.6185904691       -1.4586591257        2.6784413928
 H          0.1075800607       -0.3299061576        1.2509030111
 C          0.6309748808       -0.8226935587        0.4394790518
 C         -0.0069309791       -1.8473911198       -0.2490841567
 C          0.6824933909       -2.4835694513       -1.2726301757
 C          1.9649641909       -2.0837915717       -1.6074525363
 C          2.5870571908       -1.0499153806       -0.9329124679
 C          1.9130210807       -0.4166903691        0.1033841212
 N          2.5327105306        0.6414281120        0.7920825596
 S          4.0790347006        0.3938421631        1.3993644000
 O          4.3105786108       -0.9991961564        1.7042108420
 O          4.2053757805        1.3230590848        2.5011264886
 C          5.1464329606        0.9162152412        0.0737124292
 C          6.0971199707        0.0496480406       -0.4289572595
 C          6.9210198706        0.4823544891       -1.4565126702
 C          6.7809167605        1.7668347483       -1.9592257821
 C          5.8226895404        2.6256619390       -1.4413526734
 C          4.9964181804        2.1997013105       -0.4138125928
 H          4.2418305504        2.8357641010        0.0182471363
 H          5.7163968703        3.6238031084       -1.8347974049
 H          7.4219980404        2.1010956772       -2.7596049926
 H          7.6665267807       -0.1835050914       -1.8605055092
 H          6.1658719308       -0.9415921588       -0.0098791481
 H          1.9428486306        1.0679089630        1.4918624490
 H          3.5823390307       -0.7315432709       -1.1962572684
 H          2.4860802709       -2.5827337628       -2.4101374356
 H          0.2146312710       -3.2905031622       -1.8119857945
 C         -1.4001768691       -2.2389045593        0.1828664139
 H         -1.3231375890       -2.7181062578        1.1706585647
 C         -2.0837289990       -3.1965284808       -0.7710797246
 C         -1.8689939488       -4.6737883906       -0.6431873124
 C         -3.1829736489       -4.0706224602       -0.2495532833
 H         -4.0433026389       -4.2484127812       -0.8771321030
 H         -3.4190223589       -3.9946930286        0.8023512166
 H         -1.2146436888       -5.0180627594        0.1435764781
 H         -1.8303805288       -5.2697806520       -1.5424785815
 H         -2.2053227890       -2.7777853223       -1.7632753952
 O         -1.9795017593       -0.2785252524       -1.8372000090
