  62
        -98.94033274
 C          1.1082292626        1.2999424874       -0.7609110562
 C          2.4206192351        1.4408302902       -0.2460769652
 C          3.3399782121        0.3021273884       -0.4108831862
 C          2.8930216045       -0.8185509858       -1.0070031755
 C          3.5832843157       -2.1286487378       -1.3273658924
 C          4.9713708050       -2.4336012892       -0.7719612196
 C          5.0105738248       -2.6868630433        0.7354369610
 H          4.5332635979       -3.6495445450        0.9360358771
 H          6.0551578918       -2.7623567206        1.0451867188
 C          4.3097364240       -1.6423530009        1.6009730195
 H          3.2471988416       -1.6052855607        1.3487109479
 H          4.3773519539       -1.9710985665        2.6419476814
 C          4.8907945004       -0.2324353423        1.5216140665
 H          4.3893498345        0.3734227660        2.2814956140
 H          5.9552829512       -0.2597698330        1.7635963739
 C          4.7137448943        0.4784843244        0.1705787717
 H          4.8374396671        1.5526553895        0.3375914975
 H          5.4759678278        0.1682306294       -0.5400853304
 H          5.6668499774       -1.6467912603       -1.0488149332
 H          5.3129324486       -3.3467160477       -1.2669882142
 H          2.8900593717       -2.9151341168       -1.0105844401
 H          3.6273629301       -2.1790025304       -2.4209066733
 O          1.6223649891       -0.9094369988       -1.4925338892
 C          0.6993901101        0.1183309578       -1.3777541566
 O         -0.4087916844       -0.1585605362       -1.8759162903
 H         -1.4755666021        0.4107542890        0.0468040794
 C         -1.4180755819        1.1201221237        0.8560733099
 C         -0.6302285066        2.2542970683        0.7202111997
 C         -0.5683510528        3.1560423052        1.7757979204
 C         -1.2679458220        2.9164773021        2.9456155658
 C         -2.0209199517        1.7655308934        3.0920764701
 C         -2.0882132130        0.8579729470        2.0406328668
 N         -2.8365577124       -0.3229334057        2.1466050579
 S         -2.2830900369       -1.7191571221        1.4019759335
 O         -2.9522810013       -2.7887513740        2.1183800802
 O         -0.8390697408       -1.7884233307        1.3981886922
 C         -2.9449756581       -1.6596718459       -0.2476522765
 C         -2.2938806256       -2.3555151013       -1.2448238385
 C         -2.8338633076       -2.3601402918       -2.5207329908
 C         -4.0093511812       -1.6725369660       -2.7747759602
 C         -4.6530756565       -0.9806290908       -1.7603963109
 C         -4.1205511312       -0.9747774610       -0.4816049465
 H         -4.5905220197       -0.4409382422        0.3277159854
 H         -5.5652468888       -0.4423171084       -1.9626960089
 H         -4.4229498354       -1.6724849274       -3.7711915098
 H         -2.3273141367       -2.8907237485       -3.3109327558
 H         -1.3701960921       -2.8611095947       -1.0116881678
 H         -3.2252803250       -0.5098346965        3.0594022278
 H         -2.5463162977        1.5641008128        4.0132297447
 H         -1.2116014521        3.6235856487        3.7592881828
 H          0.0499506496        4.0367373061        1.6835324192
 C          0.1651715713        2.4721769248       -0.5450481608
 H          0.8154596273        3.3433959264       -0.3863781929
 C         -0.7498747486        2.7604360890       -1.7178300337
 C         -1.3280234316        4.1348147254       -1.8660661765
 C         -0.2724086438        3.6587409101       -2.8175018176
 H         -0.5554342585        3.4228212405       -3.8321147980
 H          0.7210253050        4.0737998754       -2.7275180722
 H         -2.3402547298        4.2296635505       -2.2271613585
 H         -1.0503223392        4.8769654639       -1.1330639164
 H         -1.3689073308        1.9183239258       -1.9973666549
 O          2.8194870365        2.4937436282        0.3228106185
