  62
        -98.93875217
 C         -2.4159766560       -1.1848616469       -0.0319882075
 C         -2.9341477386       -0.2252489639        0.8685631637
 C         -3.4922846761        1.0011799072        0.2779815273
 C         -3.4623906343        1.1608062724       -1.0564338986
 C         -4.0170914114        2.2952047182       -1.8816961923
 C         -3.7949691614        3.7238824990       -1.3694170284
 C         -2.4626009600        3.9506262495       -0.6401105477
 H         -1.7971872114        3.0976722457       -0.7918452845
 H         -1.9661194272        4.8236082865       -1.0683711151
 C         -2.6366739153        4.2016310724        0.8596205692
 H         -1.7370605985        4.6946853554        1.2367824730
 H         -3.4740829474        4.8873648902        1.0063448195
 C         -2.8568662968        2.9530014539        1.7121932737
 H         -3.0585786817        3.2761422854        2.7364711966
 H         -1.9354583853        2.3630183938        1.7385997877
 C         -3.9958558937        2.0269707032        1.2524531037
 H         -4.3486058544        1.4690430843        2.1241009473
 H         -4.8266550328        2.5977134950        0.8456185918
 H         -4.6132875037        4.0079545716       -0.7093597103
 H         -3.8491539575        4.3812971626       -2.2387383698
 H         -5.0899576367        2.1252337927       -2.0119565397
 H         -3.5511977234        2.1834957403       -2.8637227910
 O         -2.9199038843        0.2259855049       -1.8858614526
 C         -2.3600009737       -0.9470670900       -1.4047801050
 O         -1.8686612121       -1.6756834581       -2.2865119096
 O         -2.9363475884       -0.3880734080        2.1200296178
 C         -1.7981839572       -2.4540622683        0.5336507828
 C         -0.3021610796       -2.3436663984        0.3722061921
 C          0.4617040385       -3.1805721579       -0.4288457811
 C          1.8201723688       -2.9554874431       -0.5786702759
 C          2.4419580683       -1.8988478230        0.0614076170
 C          1.6861149479       -1.0602213811        0.8706100854
 C          0.3311509526       -1.2923200231        1.0258443224
 H         -0.2583916863       -0.6319950282        1.6506851750
 N          2.3112088712        0.0382353311        1.5089343412
 S          2.7394808168        1.2812331566        0.4524812249
 O          2.8296836698        2.4704137772        1.2723081964
 O          1.8371561399        1.3467174477       -0.6761408901
 C          4.3692303417        0.8111088895       -0.0838145056
 C          5.3784004801        0.7802724058        0.8590602910
 C          6.6509115272        0.4002528525        0.4637999495
 C          6.8905618616        0.0604194965       -0.8596020686
 C          5.8667130962        0.0986327447       -1.7939514786
 C          4.5908908591        0.4772353657       -1.4050963954
 H          3.7613595146        0.5152842162       -2.0932291848
 H          6.0544656194       -0.1667207842       -2.8218898783
 H          7.8814041901       -0.2363649833       -1.1653239616
 H          7.4497202365        0.3687164291        1.1870021645
 H          5.1469311550        1.0566751819        1.8741099621
 H          1.7408521814        0.4287030234        2.2473990335
 H          3.4978767634       -1.7183359655       -0.0578393521
 H          2.4013909515       -3.6104319852       -1.2095542517
 H         -0.0095059307       -3.9975094528       -0.9496968299
 H         -2.0257358445       -2.4326474290        1.6093250164
 C         -2.4015415551       -3.7017550215       -0.0702144702
 C         -2.2756827092       -5.0080886973        0.6536671924
 C         -3.6030649813       -4.3171637059        0.5799137141
 H         -4.3708669625       -4.7370975703       -0.0522099099
 H         -3.9847169670       -3.8435692810        1.4727375330
 H         -2.1328852333       -5.9071254171        0.0740244130
 H         -1.7547816596       -5.0052135011        1.5991119425
 H         -2.3630722005       -3.7091032705       -1.1527302728
