  62
        -98.94582478
 C         -2.1351368388       -1.4858513160        0.0050363728
 C         -1.8465591630       -0.3407232887       -0.7761722858
 C         -2.9210940243        0.6569393169       -0.8551282664
 C         -4.1001811038        0.4229764941       -0.2510769701
 C         -5.3003034190        1.3305353528       -0.2722116479
 C         -5.2652941263        2.4383982251        0.7896067102
 C         -4.2602711822        3.5606448016        0.5266744207
 H         -4.4084616142        3.9503356997       -0.4808786014
 H         -4.4922502601        4.3672801566        1.2249725152
 C         -2.7925896032        3.1511174856        0.7140719435
 H         -2.7444265010        2.2227623799        1.2878242784
 H         -2.2735437490        3.9135679624        1.2988757457
 C         -2.0110985901        2.9682679770       -0.5870969020
 H         -1.0048704171        2.6265148922       -0.3325068673
 H         -1.9281472310        3.9281920485       -1.1013721284
 C         -2.6257076883        1.9486924429       -1.5547470316
 H         -3.5289836299        2.3543910868       -2.0096188824
 H         -1.8993888042        1.7392554751       -2.3435652673
 H         -6.2648912690        2.8769781825        0.8352438664
 H         -5.0580542376        1.9839833253        1.7613280843
 H         -5.4055167566        1.7763083206       -1.2617267450
 H         -6.1708807248        0.6991396497       -0.0814574352
 O         -4.3505038914       -0.7128796949        0.4545275702
 C         -3.3678643904       -1.6742168010        0.6291296126
 O         -3.7095806813       -2.6367524895        1.3464122853
 O         -0.7572479669       -0.1595317095       -1.3776693824
 C         -1.0732641554       -2.5549020975        0.1942953442
 C          0.1727528887       -1.9145232969        0.7550471369
 C          0.0762022108       -1.2004647361        1.9471602164
 C          1.1788927930       -0.5650329809        2.4838945019
 C          2.4033989378       -0.6196116616        1.8401157178
 C          2.5087047178       -1.3252092025        0.6498757949
 C          1.4013890690       -1.9767064337        0.1197307995
 H          1.5042444048       -2.5198143350       -0.8062800315
 N          3.7410586125       -1.3733504992       -0.0206117478
 S          4.6643251799        0.0183089127       -0.0947234711
 O          5.4615132628       -0.1261920917       -1.2932768104
 O          5.4074988251        0.1694849040        1.1324946969
 C          3.5198960404        1.3767496660       -0.2721547182
 C          2.5838869065        1.3309759128       -1.2857913725
 C          1.7061066500        2.3915628560       -1.4355423157
 C          1.7805297704        3.4768940161       -0.5761165054
 C          2.7271964576        3.5091509147        0.4360145666
 C          3.6057619777        2.4493934919        0.5923214293
 H          4.3542378494        2.4309891309        1.3680735614
 H          2.7814858062        4.3541598363        1.1035048132
 H          1.0949119778        4.3010379712       -0.6963959493
 H          0.9604843693        2.3546635083       -2.2131494560
 H          2.5363462425        0.4770892797       -1.9415622893
 H          3.7071249459       -1.8402910320       -0.9147998654
 H          3.2746652828       -0.1308645947        2.2450085757
 H          1.0865544282       -0.0171143228        3.4094045759
 H         -0.8834746840       -1.1466039801        2.4438125870
 H         -1.4700434975       -3.2536698974        0.9443217281
 C         -0.8530919996       -3.3058887421       -1.1021286607
 C         -0.3059201359       -4.7008635704       -1.0807906370
 C         -1.7445375716       -4.4646232532       -1.4279934544
 H         -2.0583668029       -4.6019788462       -2.4519788289
 H         -2.4998433281       -4.7287946735       -0.7021855445
 H          0.3662666785       -5.0061109864       -1.8687853432
 H         -0.0813677957       -5.1347315998       -0.1181446566
 H         -0.5674545815       -2.6546356365       -1.9203863590
