  62
        -98.94102105
 C         -1.7076412999        0.2008996713       -0.9426105770
 C         -2.9184627255        0.9059243912       -0.7358252358
 C         -4.1145160284        0.0781034867       -0.5115547772
 C         -4.0064357574       -1.2620700865       -0.5036290402
 C         -5.1308199754       -2.2150483238       -0.2217758061
 C         -5.2173361219       -2.5453381203        1.2749939142
 C         -5.1928139528       -1.3152678386        2.1824472255
 H         -5.2906066992       -1.6684844205        3.2113234607
 H         -4.2168855292       -0.8309783088        2.1009272281
 C         -6.2941364471       -0.2870834056        1.8886676196
 H         -7.0883099725       -0.7515162583        1.3029536375
 H         -6.7349730368        0.0339893061        2.8348397412
 C         -5.8088288505        0.9747305130        1.1728224825
 H         -4.9522245048        1.3927622626        1.7075865045
 H         -6.6112087302        1.7164946927        1.2098513271
 C         -5.4175035919        0.7969654551       -0.2995712796
 H         -6.2252724685        0.2967128113       -0.8374304966
 H         -5.2839014379        1.7938793352       -0.7295785594
 H         -6.1340477961       -3.1111519891        1.4509560773
 H         -4.3690727985       -3.1811937844        1.5386031003
 H         -6.0665822974       -1.7761490519       -0.5623785173
 H         -4.9483119298       -3.1360582123       -0.7779450424
 O         -2.8292462618       -1.9058836680       -0.7060300418
 C         -1.6614651993       -1.1976675098       -0.9238865996
 O         -0.6556096393       -1.9154981399       -1.0933002553
 H          2.0180992983        0.1220753472       -0.2185932811
 C          1.5385215795        0.8447149888        0.4238867578
 C          0.2825584942        1.3303870213        0.0915470042
 C         -0.3301767236        2.2445988761        0.9418432531
 C          0.3074907986        2.6578118058        2.0969772835
 C          1.5715721801        2.1906729454        2.4123807456
 C          2.1933954707        1.2793921884        1.5674945753
 N          3.4706134938        0.7808402929        1.8585820746
 S          4.5714716268        0.5224237634        0.6245865779
 O          5.8618501809        0.5657681348        1.2787427742
 O          4.3786478129        1.4515942496       -0.4637243306
 C          4.2562551051       -1.1433025784        0.0843630085
 C          4.2418773800       -2.1476138263        1.0315985037
 C          4.0178963421       -3.4513108684        0.6203120672
 C          3.8161197519       -3.7276910145       -0.7235000913
 C          3.8381903133       -2.7088702506       -1.6628602824
 C          4.0612053116       -1.4027366881       -1.2573071513
 H          4.0805361597       -0.5796518920       -1.9548075981
 H          3.6776506500       -2.9251983652       -2.7069449089
 H          3.6383359970       -4.7427113902       -1.0420061467
 H          3.9986756211       -4.2477242602        1.3468051403
 H          4.4054295913       -1.8944145116        2.0658339433
 H          3.9073656868        1.1774042882        2.6777807678
 H          2.0742611393        2.5275621845        3.3064578237
 H         -0.1787937982        3.3638388168        2.7533958855
 H         -1.3079996030        2.6241874343        0.6885161058
 C         -0.3709101171        0.8795672604       -1.1931338382
 H          0.2738984251        0.1064325097       -1.6328895503
 C         -0.4475561471        2.0422158070       -2.1657976113
 C          0.8253170546        2.5608436089       -2.7622969421
 C         -0.1519001105        1.8095810697       -3.6150841309
 H         -0.7207305802        2.3573470044       -4.3514534078
 H          0.1030187087        0.8046185117       -3.9192308676
 H          0.9254282733        3.6250983240       -2.9123762168
 H          1.7482257237        2.0743435310       -2.4806588867
 H         -1.2178341367        2.7605433079       -1.9191400750
 O         -3.0255156467        2.1614177327       -0.7314538002
