  62
        -98.94701677
 C         -1.5201873571       -1.0609711797        0.0710017040
 C         -2.5340784439       -0.6055144964        0.9440841647
 C         -3.0918535071        0.7162593141        0.6413323811
 C         -2.5923691411        1.4323854762       -0.3829667434
 C         -3.0303592955        2.8127095983       -0.7920465342
 C         -4.2660918480        2.8357358856       -1.7022914283
 C         -5.5889083735        2.5030758922       -1.0109049674
 H         -5.7037383967        3.1333197575       -0.1284775517
 H         -6.3884105071        2.7662572193       -1.7061750084
 C         -5.7430879958        1.0276647467       -0.6165208132
 H         -5.0135410696        0.4266507823       -1.1639739968
 H         -6.7343730016        0.6742890760       -0.9086049613
 C         -5.5870206755        0.7513643470        0.8787592276
 H         -6.3905859796        1.2454027108        1.4292790339
 H         -5.6803950057       -0.3255800885        1.0398649989
 C         -4.2439888078        1.2027274344        1.4681832977
 H         -4.2162356693        2.2888599723        1.5573301005
 H         -4.1430132965        0.7685711368        2.4662807810
 H         -4.3419668268        3.8417300862       -2.1212788539
 H         -4.1022054993        2.1418806451       -2.5298695854
 H         -2.1899290674        3.2539387198       -1.3327013447
 H         -3.2186544086        3.4140865905        0.0981049065
 O         -1.5890499980        0.9759522549       -1.1761105497
 C         -1.0244769596       -0.2706965970       -0.9671603787
 O         -0.1109940429       -0.5616974985       -1.7630524595
 O         -2.9442645169       -1.2681101059        1.9373016627
 C         -0.8832670604       -2.4181347030        0.3169974398
 C          0.6035487747       -2.2380185784        0.4900368492
 C          1.5590725482       -3.0078825011       -0.1601930535
 C          2.9071136628       -2.7212346027       -0.0247338554
 C          3.3283741148       -1.6503645113        0.7424410733
 C          2.3805994750       -0.8927866491        1.4164603545
 C          1.0377109211       -1.2047557462        1.3121433020
 H          0.3078398828       -0.5945431786        1.8307984911
 N          2.8096613298        0.2680720444        2.1282391363
 S          2.5687953779        1.6409798755        1.1672755844
 O          3.0979809045        2.7515676855        1.9319295613
 O          1.1808246869        1.7738380329        0.7749318716
 C          3.6082175935        1.3016542690       -0.2317483828
 C          4.9505168892        1.6149444717       -0.1356892576
 C          5.7873938720        1.3055513938       -1.1951832486
 C          5.2697263176        0.6848135682       -2.3225440466
 C          3.9204974581        0.3759605702       -2.4004150817
 C          3.0745554267        0.6841892362       -1.3456070241
 H          2.0210640028        0.4479502014       -1.3777320879
 H          3.5136813710       -0.1101236788       -3.2725946875
 H          5.9210077063        0.4390535742       -3.1465012580
 H          6.8370656385        1.5446184916       -1.1379504526
 H          5.3021896221        2.0972088344        0.7615116647
 H          2.2947411455        0.4055985776        2.9890432506
 H          4.3708284148       -1.3893937509        0.8239593304
 H          3.6357014214       -3.3235876586       -0.5445597645
 H          1.2454353228       -3.8232356652       -0.7913502765
 H         -1.3103232249       -2.7771981227        1.2654261485
 C         -1.2533027613       -3.3869935534       -0.7862701940
 C         -1.3302484974       -4.8578605319       -0.5078282685
 C         -2.5854121682       -4.0707049271       -0.7311928101
 H         -3.1301379890       -4.2136322453       -1.6523084592
 H         -3.2163674056       -3.8559924267        0.1190621384
 H         -1.0158727074       -5.5455514411       -1.2781531114
 H         -1.1128160656       -5.1885346056        0.4964168681
 H         -0.8960874815       -3.0641273464       -1.7578741750
