  62
        -98.94353334
 C         -1.5227131693       -1.3915318016        0.5942335391
 C         -2.5139372997       -1.1763519711       -0.3940834705
 C         -3.4616988200       -0.0834957818       -0.1201281894
 C         -3.3055858701        0.6743697974        0.9797551912
 C         -4.1861505205        1.8298205667        1.3583271523
 C         -3.6672902512        3.1560345074        0.7861541433
 C         -3.3096819815        3.0893347688       -0.6984967368
 H         -2.9692673720        4.0831649592       -0.9977019061
 H         -2.4720537512        2.4017630192       -0.8352854576
 C         -4.4662683815        2.6520744991       -1.6077670869
 H         -5.4159448114        2.7670751382       -1.0837932866
 H         -4.4962504820        3.3095041098       -2.4792195364
 C         -4.3478270110        1.2202326595       -2.1326306181
 H         -3.3601121711        1.0716779903       -2.5759409385
 H         -5.0863363512        1.0875226499       -2.9278237681
 C         -4.5849554404        0.1108828286       -1.1002357490
 H         -4.6735550301       -0.8336395210       -1.6448781397
 H         -5.5253301203        0.2926578978       -0.5754647286
 H         -2.7767276511        3.4484510173        1.3472076733
 H         -4.4296083314        3.9211696670        0.9443865141
 H         -5.1948722505        1.6385281366        0.9966275524
 H         -4.2101093903        1.8988357558        2.4472998824
 O         -2.2935121498        0.4878659271        1.8651732908
 C         -1.3909245494       -0.5471048724        1.7010516997
 O         -0.5264017092       -0.6189519028        2.5973553295
 O         -2.6318607496       -1.8526045503       -1.4487428911
 C         -0.4943209089       -2.5108969011        0.5117557779
 C          0.6666701307       -2.0371111699       -0.3272530720
 C          0.5669394103       -1.8903100788       -1.7066322718
 C          1.6297945900       -1.3873863878       -2.4353513317
 C          2.8070668999       -1.0166193078       -1.8081888616
 C          2.9119125103       -1.1540569289       -0.4311861018
 C          1.8482176907       -1.6654707899        0.2982544181
 H          1.9262061310       -1.7494649708        1.3739871580
 N          4.0956396603       -0.7411819589        0.2195736083
 S          4.4635370796        0.8847291514        0.0333296995
 O          5.0305783292        1.0946815227       -1.2743628804
 O          5.3112212397        1.2227173308        1.1540703096
 C          2.8864959893        1.7092326806        0.1562498406
 C          2.2657133996        1.7439688993        1.3889759908
 C          1.0088114994        2.3157514487        1.4922289215
 C          0.3977774689        2.8373549194        0.3628725921
 C          1.0313339386        2.7914693207       -0.8690917681
 C          2.2877130188        2.2178948013       -0.9779254589
 H          2.8145540986        2.1588781323       -1.9161894390
 H          0.5468448882        3.1956118512       -1.7435487976
 H         -0.5815256213        3.2814522590        0.4449733327
 H          0.5044131396        2.3331239478        2.4452537817
 H          2.7694683599        1.3341376588        2.2498759203
 H          4.1030003406       -0.9751373198        1.2028004381
 H          3.6387667297       -0.6080211870       -2.3590492715
 H          1.5397286197       -1.2768418969       -3.5053031816
 H         -0.3599511397       -2.1460229688       -2.1961606818
 H         -0.1269275186       -2.6501035118        1.5375752777
 C         -1.0590204985       -3.8305176109        0.0295288969
 C         -0.3100893879       -5.0900879408        0.3406710857
 C         -1.6073354078       -4.7986181319        1.0323358063
 H         -2.4782236577       -5.3781437621        0.7653864160
 H         -1.5772724977       -4.5133757128        2.0742042165
 H         -0.2872680377       -5.8725849802       -0.4020052749
 H          0.6005741922       -5.0030689809        0.9143871856
 H         -1.5664924187       -3.7682338303       -0.9229284529
