  62
        -98.93865463
 C          1.1635684167        1.3451760178        0.1637855227
 C          2.0018442460        0.7450611660        1.1335569151
 C          2.7071280204       -0.4931490012        0.7481689094
 C          2.4959555938       -0.9999012728       -0.4802505503
 C          3.1256041564       -2.2141319113       -1.1095106428
 C          4.5765510348       -1.9670017487       -1.5536882427
 C          5.4385128800       -1.2092386830       -0.5474865294
 H          6.4009727406       -1.0033454091       -1.0231100122
 H          4.9733469128       -0.2462868494       -0.3287256853
 C          5.7133192605       -1.9471621969        0.7605376040
 H          6.2130529199       -2.8932092612        0.5407768010
 H          6.4063658016       -1.3327148417        1.3409224411
 C          4.4911655152       -2.2363061621        1.6349332999
 H          4.8586847728       -2.5342418492        2.6214143346
 H          3.9233288934       -3.0801798768        1.2519136297
 C          3.5694803965       -1.0413554082        1.8591224255
 H          4.1609164053       -0.1961224928        2.2302072329
 H          2.8749237794       -1.2847002615        2.6735302441
 H          4.5519345492       -1.3818044281       -2.4760794840
 H          5.0370656206       -2.9306330886       -1.7773722226
 H          3.0649708261       -3.0588181686       -0.4294675379
 H          2.5306493036       -2.4576092042       -1.9923838139
 O          1.6521650253       -0.4078636027       -1.3711696532
 C          0.9481241294        0.7514928160       -1.0797292181
 O          0.1913421017        1.1238363358       -1.9933937260
 O          2.1642444065        1.2250626696        2.2889010932
 C          0.4074933499        2.6001440548        0.5597464445
 C         -1.0586758289        2.4284697281        0.2511932027
 C         -1.7594606086        3.2302077741       -0.6394731442
 C         -3.1046303093        3.0036707668       -0.8724627216
 C         -3.7732817654        1.9786208767       -0.2297656677
 C         -3.0815896924        1.1706957942        0.6664494048
 C         -1.7368485648        1.4044613072        0.9028205596
 H         -1.2065420424        0.7735378123        1.6022827012
 N         -3.7443107916        0.1392239710        1.3572506775
 S         -3.0777838103       -1.3899555057        1.4460796589
 O         -4.1487555313       -2.2154064775        1.9609570305
 O         -1.8645259483       -1.3641621811        2.2228481222
 C         -2.7320757692       -1.8421033933       -0.2413921252
 C         -3.7680561377       -2.3096239607       -1.0269088781
 C         -3.5179353255       -2.6068690796       -2.3562032734
 C         -2.2456023477       -2.4224863549       -2.8769667289
 C         -1.2165169757       -1.9551393985       -2.0749071751
 C         -1.4606232843       -1.6615505800       -0.7431578164
 H         -0.6846794393       -1.2946876094       -0.0888577530
 H         -0.2290170190       -1.7938962443       -2.4768556231
 H         -2.0513404600       -2.6447877056       -3.9143576323
 H         -4.3134135349       -2.9760184686       -2.9833367490
 H         -4.7391631936       -2.4471309042       -0.5794485452
 H         -4.7302477236        0.0739880690        1.1466021296
 H         -4.8220854120        1.8028785785       -0.4148280145
 H         -3.6378556450        3.6299965067       -1.5712607572
 H         -1.2477160359        4.0187502191       -1.1657759300
 H          0.5135206605        2.6426380661        1.6573221813
 C          0.9969505590        3.8946079835        0.0212385505
 C          2.4660647889        4.0136162892       -0.2511319800
 C          1.4893730120        4.0393247196       -1.3863553052
 H          1.3204812969        4.9794227899       -1.8911157877
 H          1.4228916324        3.1784178153       -2.0319688615
 H          2.9674009923        4.9300303886        0.0220418929
 H          3.0710524366        3.1285399955       -0.1161203743
 H          0.5199240365        4.7654807655        0.4609390037
