  62
        -98.93906953
 C         -1.4945829549       -0.7819182356       -0.1225960186
 C         -2.7753630458       -1.3753409280       -0.1216856799
 C         -3.9011352630       -0.5316968238        0.3268702326
 C         -3.6466830208        0.7315245679        0.7169687335
 C         -4.6252292359        1.7809797485        1.1741598954
 C         -5.4217446821        2.3971302581        0.0130669516
 C         -5.9549614354        1.3924802712       -1.0046952301
 H         -6.4064752949        1.9577203931       -1.8243634389
 H         -5.1197740546        0.8276347447       -1.4226943384
 C         -7.0071809101        0.4231167807       -0.4714248216
 H         -7.3666440870       -0.1641845486       -1.3203766331
 H         -7.8537822247        0.9919548815       -0.0803784557
 C         -6.5333602428       -0.5500393262        0.6104549922
 H         -6.4707331336       -0.0615987841        1.5791789639
 H         -7.2965883424       -1.3281321120        0.7049928129
 C         -5.2220155922       -1.2625098973        0.2945623344
 H         -5.1079361581       -2.1052987188        0.9872940217
 H         -5.2918645679       -1.7181421665       -0.6999470935
 H         -6.2510913112        2.9710117230        0.4301274561
 H         -4.7644757219        3.0903504523       -0.5172756713
 H         -4.0377435141        2.5696517825        1.6491933537
 H         -5.2926298853        1.3684605169        1.9249364684
 O         -2.3883634443        1.2581539440        0.7091689413
 C         -1.2855945951        0.5314647441        0.2977138553
 O         -0.2067694256        1.1479582025        0.3538946551
 O         -2.9807828994       -2.5677576873       -0.4799227890
 C         -0.2982674942       -1.5918349956       -0.5852336418
 C          0.7532617961       -1.6238608400        0.4953063345
 C          0.3782741253       -1.9516614024        1.7962395566
 C          1.3078341677       -1.9655598690        2.8170913322
 C          2.6306663663       -1.6431741906        2.5670588895
 C          3.0185040736       -1.3312790108        1.2703259462
 C          2.0848191191       -1.3371900719        0.2422703268
 H          2.4188535731       -1.1167250259       -0.7565926806
 N          4.3530121328       -1.0215053203        0.9813402724
 S          4.7579826644       -0.0063293117       -0.2786659769
 O          4.6437913677       -0.7063184274       -1.5341619757
 O          6.0885879423        0.4543109922        0.0590603578
 C          3.6173687984        1.3632330788       -0.2320274977
 C          2.9228539141        1.7053791821       -1.3732176353
 C          2.0583323442        2.7861990591       -1.3341921218
 C          1.9011499193        3.5007564813       -0.1585092660
 C          2.6076184788        3.1462140222        0.9791820770
 C          3.4764031872        2.0688438084        0.9452769853
 H          4.0418501720        1.7735823373        1.8144790251
 H          2.4768307572        3.7020401677        1.8938595257
 H          1.2175299808        4.3343238917       -0.1273725348
 H          1.5014967032        3.0602329280       -2.2165051770
 H          3.0676339797        1.1171294234       -2.2660857263
 H          4.9543874475       -0.8995447701        1.7819199564
 H          3.3558622173       -1.6387835880        3.3661979841
 H          1.0001975019       -2.2194031213        3.8204395041
 H         -0.6578545686       -2.1888151145        1.9964616613
 H         -0.6726891664       -2.6147879555       -0.7399463329
 C          0.2157743602       -1.0521125038       -1.9034798759
 C          0.9386720768       -1.9509587097       -2.8602128493
 C         -0.4457156651       -1.4741399358       -3.1795469201
 H         -0.5731827901       -0.7413621286       -3.9621843533
 H         -1.2591613288       -2.1812229929       -3.1065301923
 H          1.7706640889       -1.5497441463       -3.4199748741
 H          1.0655727417       -2.9844285153       -2.5747459762
 H          0.5418632727       -0.0203012539       -1.8256951106
