  62
        -98.94090700
 C          2.3836068979        1.2704804304        0.1511163882
 C          2.2444392627       -0.1342415016        0.0140313497
 C          3.3384386787       -0.9409316489        0.5773099091
 C          4.3671042292       -0.3446346922        1.2041509214
 C          5.5451181084       -1.0346619589        1.8365311383
 C          6.6654044327       -1.3890083573        0.8489216888
 C          6.3547463413       -2.5461113596       -0.1014877754
 H          7.2944921673       -2.8284223636       -0.5802175386
 H          6.0116918768       -3.4061634624        0.4744731548
 C          5.3272220466       -2.2124612824       -1.1920897645
 H          5.2269402955       -1.1280571779       -1.2788107460
 H          5.6870908422       -2.5781895226       -2.1563984221
 C          3.9429155905       -2.8206628623       -0.9655556718
 H          4.0087877574       -3.9101238063       -1.0094251531
 H          3.2855447957       -2.4924485231       -1.7751500176
 C          3.2897486281       -2.4241185204        0.3650070042
 H          2.2380747247       -2.7214678629        0.3348348932
 H          3.7750310235       -2.9430582106        1.1914310381
 H          7.5450674040       -1.6579459258        1.4381073641
 H          6.9143168800       -0.4976822696        0.2683685870
 H          5.2095903621       -1.9373608034        2.3479607499
 H          5.9474698042       -0.3428880144        2.5797063118
 O          4.4418531920        1.0040751783        1.3552699267
 C          3.4660952105        1.8363733256        0.8331552908
 O          3.6695867655        3.0485676401        1.0441680184
 O          1.2765878043       -0.7074655471       -0.5499634348
 C          1.3470439477        2.2521401401       -0.3732100824
 C         -0.0275492803        1.8265235119        0.0767349023
 C         -0.4298852381        2.0926350895        1.3817725901
 C         -1.6649447771        1.6717315616        1.8380207315
 C         -2.5177662020        0.9665636505        1.0068229764
 C         -2.1155537435        0.6775964456       -0.2898784413
 C         -0.8861345281        1.1264911083       -0.7547007710
 H         -0.5770466202        0.8861048196       -1.7600157834
 N         -2.9663173963       -0.0488502776       -1.1389810821
 S         -3.7770243125       -1.3865987636       -0.5334524198
 O         -3.0585593100       -2.0254927387        0.5441630475
 O         -4.0642206700       -2.2053910514       -1.6916650176
 C         -5.3060486342       -0.7025004428        0.0758086793
 C         -5.7219139852       -0.9842075849        1.3622903096
 C         -6.9198208597       -0.4511306178        1.8125445708
 C         -7.6780585766        0.3490215437        0.9719191587
 C         -7.2484958324        0.6199224447       -0.3187429768
 C         -6.0525067561        0.0893311672       -0.7748226969
 H         -5.6856274124        0.2732951583       -1.7706461563
 H         -7.8410377082        1.2424328575       -0.9696828327
 H         -8.6090137619        0.7637901842        1.3248774496
 H         -7.2550180134       -0.6616863857        2.8154740713
 H         -5.0968545513       -1.6072644646        1.9824520152
 H         -2.5511160944       -0.2609480364       -2.0349028757
 H         -3.4748935404        0.6205050827        1.3611720960
 H         -1.9661867956        1.8891158579        2.8515937167
 H          0.2447773777        2.6254367118        2.0381531390
 H          1.5856586442        3.2056262603        0.1239843856
 C          1.4266056762        2.5137326555       -1.8704441718
 C          2.7591902122        2.6706813464       -2.5387766183
 C          1.8932558010        1.4919275171       -2.8611962104
 H          1.4099446270        1.4621632033       -3.8272918894
 H          2.1835939953        0.5211657494       -2.4919107930
 H          2.8775761373        3.4446403164       -3.2818731303
 H          3.6384039903        2.5086388041       -1.9318285208
 H          0.6391048657        3.1843406074       -2.2010808715
