  62
        -98.94596198
 C         -1.1972190216       -0.9481392481       -0.5071537373
 C         -2.3052825773       -1.2254634602        0.3347158573
 C         -3.0834443093       -0.0720521543        0.8007556672
 C         -2.6908810001        1.1657609334        0.4500520224
 C         -3.4090725648        2.4310094622        0.8194080795
 C         -4.4425224896        2.8178746708       -0.2479795742
 C         -5.3635992976        1.6692720235       -0.6592054368
 H         -6.0682719870        2.0644299837       -1.3939798658
 H         -4.7713375327        0.9008537640       -1.1610048699
 C         -6.1393600740        1.0314127987        0.5016225725
 H         -7.1788325036        0.8953864378        0.1958793556
 H         -6.1396112378        1.7031109073        1.3608377558
 C         -5.6190428475       -0.3409568812        0.9332223043
 H         -5.5287274068       -0.9903005993        0.0588799811
 H         -6.3591686398       -0.7909660021        1.6002574647
 C         -4.2759113278       -0.3432937964        1.6745017416
 H         -4.3119797335        0.3641299471        2.5059621232
 H         -4.1233547503       -1.3459059490        2.0850176011
 H         -5.0399731488        3.6471144776        0.1353050654
 H         -3.9093138643        3.1640927663       -1.1362126979
 H         -3.8977281762        2.2951709217        1.7825172067
 H         -2.6715161162        3.2305348761        0.9095750705
 O         -1.6105921491        1.3994759469       -0.3327947930
 C         -0.8354049931        0.3601944319       -0.8310517364
 O          0.1127319872        0.7517324383       -1.5388218387
 H          1.5373377331       -0.4133121166       -0.1967730292
 C          1.6490569219       -1.3740622292        0.2784990141
 C          0.7571006520       -2.3954005958       -0.0146996527
 C          0.9266325585       -3.6285581012        0.6032633538
 C          1.9563888723       -3.8259322652        1.5063530314
 C          2.8166843056       -2.7920950366        1.8293156930
 C          2.6539563928       -1.5552002386        1.2156457057
 N          3.4950554724       -0.4748925045        1.5192427463
 S          2.8483056189        1.0712798938        1.5782864203
 O          3.7668847581        1.8054093536        2.4281268098
 O          1.4715010225        1.0599447440        2.0193271744
 C          2.9999046054        1.7059296165       -0.0757896989
 C          2.1152823376        2.6783661254       -0.4932904571
 C          2.2648628261        3.2212723545       -1.7590504253
 C          3.2907704321        2.7831369355       -2.5802322707
 C          4.1725733536        1.8059703670       -2.1447198660
 C          4.0314422424        1.2621448698       -0.8786366492
 H          4.6938646337        0.4962513273       -0.5106447689
 H          4.9665833273        1.4634780333       -2.7889228425
 H          3.3996693793        3.2028722034       -3.5680617014
 H          1.5721258250        3.9735428747       -2.1007245182
 H          1.3173482586        2.9770855492        0.1683596439
 H          4.1513317335       -0.6361907797        2.2695700313
 H          3.6024794281       -2.9352436905        2.5553416478
 H          2.0780630025       -4.7881036510        1.9802880628
 H          0.2327898980       -4.4278504407        0.3887647449
 C         -0.3871184687       -2.1483462420       -0.9694352353
 H         -1.0707198953       -3.0057057450       -0.8982642507
 C          0.1173930224       -2.0522034963       -2.3953424807
 C          0.4368042652       -3.3128470361       -3.1395939474
 C         -0.7651714126       -2.5021025206       -3.5191563430
 H         -0.7451647070       -1.9437502492       -4.4427395911
 H         -1.7417742875       -2.8875482031       -3.2640326020
 H          0.2736820213       -4.2507703807       -2.6308503135
 H          1.2863784503       -3.3148523760       -3.8046111594
 H          0.7453069714       -1.1887180378       -2.5703338044
 O         -2.6335101143       -2.3951632589        0.6747480080
