  62
        -98.94603392
 C         -0.9976416299       -1.5735222198       -0.1438049502
 C         -1.1505382700       -0.1980274499       -0.4469806704
 C         -2.2195845401        0.5043236602        0.2803715294
 C         -2.9046068402       -0.1380402197        1.2417110594
 C         -4.0280055503        0.4541516403        2.0417765292
 C         -5.3866368902        0.1911254501        1.3771046492
 C         -5.4224859901        0.5376812799       -0.1112840709
 H         -4.7549782600       -0.1390565302       -0.6493995007
 H         -6.4362662201        0.3402630497       -0.4662983710
 C         -5.0401339802        1.9887568098       -0.4340742111
 H         -5.1184948203        2.6005743500        0.4653366388
 H         -5.7537849502        2.3851736496       -1.1593686813
 C         -3.6463518602        2.1571615498       -1.0418615110
 H         -3.5310810700        1.4736651397       -1.8864690309
 H         -3.5674086502        3.1756730198       -1.4304965812
 C         -2.4673501202        1.9409960301       -0.0842906709
 H         -1.5588056202        2.2762854501       -0.5921193209
 H         -2.6026435203        2.5475754302        0.8140009790
 H         -6.1468999903        0.7683408802        1.9066046690
 H         -5.6259957601       -0.8689737099        1.4884544593
 H         -4.0213518903       -0.0042819995        3.0323669493
 H         -3.8636852004        1.5247215704        2.1494313390
 O         -2.6747480001       -1.4360252796        1.5666181797
 C         -1.7403702100       -2.1831271597        0.8715440699
 O         -1.6629522899       -3.3729419496        1.2426840301
 H          1.4248844300       -0.2475595996       -0.2719283202
 C          1.9373516800       -1.1366859195        0.0557565900
 C          1.3617001501       -2.3801157296       -0.1582627898
 C          2.0454141902       -3.5143641195        0.2631303704
 C          3.2704282001       -3.4009847393        0.8964238005
 C          3.8227994200       -2.1568595792        1.1435608403
 C          3.1445220499       -1.0177824693        0.7261497001
 N          3.6591224998        0.2666381207        0.9600015499
 S          2.6033047397        1.5016624507        1.3735471496
 O          3.4249930996        2.4456927109        2.1072049095
 O          1.4481987097        1.0032161708        2.0863055396
 C          2.1261397598        2.2699753104       -0.1590436206
 C          2.8212270199        2.0221310103       -1.3241390405
 C          2.4403649099        2.6838515200       -2.4807656006
 C          1.3864380899        3.5825763500       -2.4516067809
 C          0.7032926197        3.8251329501       -1.2708302410
 C          1.0747249897        3.1623717304       -0.1126535008
 H          0.5606472396        3.3074879905        0.8249249591
 H         -0.1203798503        4.5213225801       -1.2487364112
 H          1.0898816999        4.0923553398       -3.3548387910
 H          2.9652409100        2.4910475599       -3.4028268206
 H          3.6305772299        1.3107217303       -1.3192695403
 H          4.5025370498        0.2995153409        1.5142111300
 H          4.7658628199       -2.0655808990        1.6608335604
 H          3.7922949502       -4.2891798092        1.2190232407
 H          1.6024145703       -4.4873858596        0.1097986106
 C          0.0126436802       -2.4822559598       -0.8285532199
 H         -0.3568374998       -3.5063341699       -0.6786173698
 C          0.1423091203       -2.2312512101       -2.3186781200
 C          0.6359571704       -3.3346997902       -3.2030863897
 C         -0.8005724496       -2.9111704103       -3.2631677399
 H         -1.1453717695       -2.3645566505       -4.1278106600
 H         -1.5447982496       -3.5696410703       -2.8384976799
 H          1.2816021105       -3.0807868403       -4.0294119597
 H          0.8639730405       -4.2838384801       -2.7422258795
 H          0.4420269602       -1.2191161701       -2.5552067601
 O         -0.4486880600        0.4356791300       -1.2793548905
