  62
        -98.93697388
 C         -1.8793390911       -1.1730725206       -0.1635724910
 C         -2.3435279112        0.0556328498       -0.6899365400
 C         -3.7991825612        0.2724419498       -0.6316699697
 C         -4.5861444211       -0.6830785006       -0.1048940303
 C         -6.0728513611       -0.5823619407        0.0870015200
 C         -6.3894718709        0.2981628283        1.3126304407
 C         -7.1133090510        1.6029858786        0.9803453518
 H         -8.1594974210        1.3822642587        0.7583787518
 H         -7.0909140008        2.2270076379        1.8762654323
 C         -6.5430627511        2.4002899895       -0.1966477776
 H         -6.9766474011        3.4011986394       -0.1428889868
 H         -6.8851364013        1.9639367902       -1.1362915379
 C         -5.0148334711        2.5278952795       -0.2433372877
 H         -4.7683760112        3.5385136698       -0.5756191970
 H         -4.5868689310        2.4090769687        0.7522958221
 C         -4.3194842513        1.5567943702       -1.2156382586
 H         -4.9901212314        1.3334520309       -2.0503001287
 H         -3.4352441513        2.0514529506       -1.6291914383
 H         -7.0051572108       -0.2645957022        2.0158397904
 H         -5.4514141208        0.5216997379        1.8249471908
 H         -6.4494563011       -1.5941301509        0.2384065493
 H         -6.5312749012       -0.1703761401       -0.8092622096
 O         -4.0995011410       -1.8488889910        0.3949823588
 C         -2.7424903310       -2.1231617010        0.3819561084
 O         -2.4342565110       -3.2251144814        0.8787366375
 O         -1.5869199113        0.9290554002       -1.1896464795
 C         -0.3963105711       -1.5048483006       -0.1866579115
 C          0.3635303890       -0.4602022712        0.5929876492
 C          0.0676558792       -0.3033462422        1.9456613294
 C          0.7076572393        0.6581362672        2.7019638100
 C          1.6637440392        1.4784533877        2.1277481005
 C          1.9674847290        1.3305787087        0.7801739204
 C          1.3229555689        0.3598478193        0.0227469197
 H          1.5619445788        0.2844101301       -1.0239395104
 N          2.9138717789        2.1699109892        0.1726974009
 S          4.0565246788        1.5787619000       -0.8913069297
 O          5.0053382088        2.6604709201       -1.0361206690
 O          3.4314437886        1.1109526409       -2.1010839800
 C          4.8184921789        0.2230987193       -0.0184594709
 C          4.3281011589       -1.0565648606       -0.1818022118
 C          4.8921867990       -2.0870537811        0.5539534473
 C          5.9296992491       -1.8225051818        1.4343586174
 C          6.4135107091       -0.5314909319        1.5842799183
 C          5.8509680590        0.5035565386        0.8556814092
 H          6.2033646690        1.5193145886        0.9335802099
 H          7.2239109492       -0.3296397625        2.2660455684
 H          6.3649621792       -2.6282620723        2.0041227467
 H          4.5182372990       -3.0916550310        0.4362101266
 H          3.5246719388       -1.2269885700       -0.8788325218
 H          3.3216899290        2.8556345687        0.7909705014
 H          2.1595485693        2.2367390372        2.7145746710
 H          0.4641019894        0.7706675564        3.7477004101
 H         -0.6831970208       -0.9430733225        2.3899686590
 H         -0.2961562711       -2.4647150510        0.3400793578
 C          0.0794609787       -1.6830867895       -1.6124696417
 C          1.2499717786       -2.5707794292       -1.9060544525
 C         -0.1336181114       -3.0037982689       -2.2865551927
 H         -0.4055605316       -3.0110016181       -3.3314101627
 H         -0.6030888713       -3.7859553494       -1.7075091532
 H          1.9320311585       -2.2807585586       -2.6919073224
 H          1.7173167287       -3.0707117199       -1.0708398130
 H         -0.0506372314       -0.7931690390       -2.2176212910
