  62
        -98.93920223
 C         -2.2359504098       -0.8305895707       -0.0267480111
 C         -3.1979974883       -0.7228890707        1.0077203734
 C         -4.0804782370        0.4551240530        0.9724796527
 C         -3.9049245364        1.3704374304        0.0038368085
 C         -4.7182841801        2.6106927780       -0.2434930655
 C         -5.8404776177        2.3305668165       -1.2577296919
 C         -7.1396401885        1.8017411954       -0.6510951700
 H         -7.6304367451        2.6058956602       -0.0988887671
 H         -7.7957078663        1.5255251877       -1.4797244017
 C         -6.9847165423        0.5942290831        0.2771371101
 H         -7.9529307446        0.0937619668        0.3392283815
 H         -6.2808109073       -0.1168390380       -0.1590305172
 C         -6.5314517663        0.9761699195        1.6941105878
 H         -7.2033400515        0.5194728731        2.4236623079
 H         -6.6261873625        2.0545822423        1.8197685650
 C         -5.1083152626        0.5360444424        2.0681874412
 H         -5.1388187693       -0.4720674808        2.4932000623
 H         -4.7262303463        1.1942055708        2.8556746972
 H         -5.4577250249        1.6158289990       -1.9909216048
 H         -6.0682033866        3.2551172677       -1.7921492425
 H         -5.1174120259        3.0023446561        0.6873823055
 H         -4.0368406213        3.3485452342       -0.6723781133
 O         -2.9470388674        1.2455745057       -0.9547380739
 C         -2.0963731278        0.1542208370       -1.0041639491
 O         -1.2899800391        0.1880728602       -1.9546968609
 O         -3.3227644437       -1.5841421617        1.9190544645
 C         -1.3170999066       -2.0421452494       -0.0155962530
 C          0.0642832981       -1.5871165043        0.3854150651
 C          0.3961358013       -1.5082344560        1.7350174828
 C          1.6316933992       -1.0309315432        2.1305903289
 C          2.5581409232       -0.6122455406        1.1911088592
 C          2.2287121492       -0.6688718427       -0.1559864672
 C          0.9968415573       -1.1720006637       -0.5525775447
 H          0.7478970336       -1.1954506110       -1.6016749143
 N          3.1546363134       -0.2308769597       -1.1190873406
 S          3.9067229684        1.2496564519       -0.8728708152
 O          3.0914745405        2.1453322583       -0.0847229774
 O          4.2806932890        1.7107103132       -2.1924114124
 C          5.3850861255        0.8177004882        0.0233960345
 C          5.6968881854        1.4721700327        1.1988753029
 C          6.8577616356        1.1243112064        1.8723713446
 C          7.6823816748        0.1343187142        1.3606075504
 C          7.3565621304       -0.5115384737        0.1771420800
 C          6.1983929203       -0.1677869343       -0.5013597404
 H          5.9098673784       -0.6433507649       -1.4237250300
 H          7.9999606047       -1.2811644841       -0.2178780798
 H          8.5840748604       -0.1354522941        1.8873839541
 H          7.1126062227        1.6260654700        2.7920592549
 H          5.0221600590        2.2310840653        1.5623411132
 H          2.8028026504       -0.2938884035       -2.0640853241
 H          3.5185538393       -0.2269927006        1.4923975865
 H          1.8767074380       -0.9801235667        3.1805998369
 H         -0.3355858163       -1.8111599869        2.4707301969
 H         -1.7051148836       -2.6902193455        0.7814281204
 C         -1.3511957622       -2.8062490028       -1.3226894875
 C         -0.7827188967       -4.1919949916       -1.3726075945
 C         -2.2644834240       -3.9863049252       -1.4568499397
 H         -2.7566030476       -4.1504291431       -2.4038542916
 H         -2.8672063438       -4.2516348086       -0.6006938156
 H         -0.2546413518       -4.5008930446       -2.2616269560
 H         -0.3782016524       -4.5955961382       -0.4569089318
 H         -1.2303333054       -2.1767838740       -2.1955747867
