  62
        -98.93397114
 C          1.8124683900        0.7101768209        0.0895958591
 C          2.3828627005       -0.5468369687        0.4064243099
 C          3.7996942505       -0.7619223686        0.0548170198
 C          4.4701714500        0.2346198311       -0.5521749711
 C          5.9154625099        0.2704045212       -0.9731543815
 C          6.8736126201        0.4727006624        0.2113111182
 C          6.5607935806       -0.3745191168        1.4417102289
 H          7.2421366107       -0.0663230760        2.2391703985
 H          5.5464309207       -0.1552540068        1.7797817889
 C          6.7167993110       -1.8813302669        1.2508509000
 H          7.7403676610       -2.0992062068        0.9379565499
 H          6.5614582714       -2.3492579862        2.2264026604
 C          5.7546403410       -2.5335722579        0.2553047707
 H          5.8068520714       -3.6148953378        0.4131291815
 H          6.0690497507       -2.3567821086       -0.7698317995
 C          4.2915400609       -2.1387610682        0.4309259107
 H          4.0010575612       -2.2893510475        1.4771656509
 H          3.6695758410       -2.8384598288       -0.1409208087
 H          6.8249381999        1.5227926226        0.5095331574
 H          7.8898717701        0.2650934424       -0.1278326119
 H          6.1661978101       -0.6308940491       -1.5246078908
 H          6.0216245096        1.1176481708       -1.6542240721
 O          3.8816064396        1.4280570408       -0.8416912519
 C          2.5564775496        1.7043664306       -0.5464354818
 O          2.1935692292        2.8420413802       -0.8961654926
 O          1.7344569109       -1.4649182785        0.9799476607
 C          0.3540379401        0.9140446207        0.4627510693
 C         -0.5341091701        0.5292412096       -0.6928410103
 C         -0.3856395605        1.1326292587       -1.9393213507
 C         -1.1870329006        0.7543261877       -2.9996775703
 C         -2.1533614503       -0.2237331125       -2.8388159194
 C         -2.3059803699       -0.8360098716       -1.6006110489
 C         -1.5005889298       -0.4532573406       -0.5347638893
 H         -1.6106523994       -0.9578844799        0.4133530011
 N         -3.2662249995       -1.8391372417       -1.4204548079
 S         -4.0593498492       -2.0258597709        0.0326593024
 O         -3.2100032688       -2.6771251699        0.9974723327
 O         -5.2744608991       -2.7315412515       -0.3149423768
 C         -4.4617439095       -0.3786154506        0.5891577313
 C         -5.0497318000        0.5028211886       -0.2968336593
 C         -5.3832986202        1.7733953688        0.1431976199
 C         -5.1347315801        2.1378375799        1.4575293195
 C         -4.5517126096        1.2394158407        2.3373217801
 C         -4.2077969794       -0.0304767395        1.8999452909
 H         -3.7397503590       -0.7552677789        2.5472808614
 H         -4.3569257195        1.5234089115        3.3591067798
 H         -5.3931253903        3.1277301301        1.7980822388
 H         -5.8350808906        2.4749447382       -0.5392995006
 H         -5.2416976501        0.1911214278       -1.3103795590
 H         -3.8652972297       -2.0142705425       -2.2129380577
 H         -2.7757789004       -0.5221498333       -3.6685789490
 H         -1.0609539110        1.2277335870       -3.9616123807
 H          0.3669121592        1.8964519488       -2.0628303115
 H          0.1698519705        0.1890278013        1.2715133598
 C          0.0640335798        2.3043291910        1.0131815083
 C         -0.8999118706        3.2611960503        0.3829243078
 C         -1.2581659502        2.5789931911        1.6661352684
 H         -1.2762046701        3.1572555518        2.5771759179
 H         -1.9991374599        1.7945696109        1.6232078091
 H         -0.6433752009        4.3092049804        0.4038102269
 H         -1.4129874007        2.9558898195       -0.5148603519
 H          0.9371033298        2.7470981716        1.4804382778
