  62
        -98.93653013
 C         -1.1872303387       -0.6700433915        0.6501353208
 C         -2.0088238415       -0.6546669569       -0.5031138468
 C         -2.9503266387        0.4693564060       -0.5932925637
 C         -2.9374403383        1.4339754059        0.3438105323
 C         -3.8139436822        2.6569192166        0.3690574706
 C         -5.2022350878        2.4198280537        0.9794832011
 C         -6.1654011884        1.6097401363        0.1107613852
 H         -7.1571194683        1.7070702227        0.5568861919
 H         -6.2114728783        2.0511016314       -0.8852625730
 C         -5.8172892790        0.1187657186        0.0001306104
 H         -5.1207578954       -0.1520974555        0.7968375515
 H         -6.7204630894       -0.4775663153        0.1470397589
 C         -5.2150691003       -0.2935765722       -1.3431033603
 H         -5.9527262233       -0.1490947714       -2.1354410512
 H         -4.9718868726       -1.3580377213       -1.2978250143
 C         -3.9373248881        0.4671318543       -1.7212438961
 H         -4.1788412652        1.4876176064       -2.0186288289
 H         -3.4698786566       -0.0424190332       -2.5675215793
 H         -5.6481548906        3.4001923319        1.1624171652
 H         -5.0784766837        1.9255445841        1.9458640787
 H         -3.2906521471        3.4000770504        0.9751050421
 H         -3.9202000592        3.0509209437       -0.6422785718
 O         -2.0810318621        1.4176704886        1.4003644213
 C         -1.1937962077        0.3690315740        1.5787838727
 O         -0.4656334527        0.4777090021        2.5886115400
 O         -1.9576335325       -1.5211536364       -1.4116158314
 C         -0.1904635475       -1.8034741443        0.8596854222
 C          0.7212968425       -1.8617437787       -0.3463376813
 C          1.1205274179       -2.9745944080       -1.0746291239
 C          1.9958526946       -2.8416031871       -2.1418173139
 C          2.5142833673       -1.6135229272       -2.5028637614
 C          2.1263508087       -0.4892814194       -1.7818877711
 C          1.2464587822       -0.6279602948       -0.7246388488
 H          0.9339140358        0.2586190999       -0.1960080170
 N          2.6069389915        0.7865341341       -2.1065707419
 S          2.7618726012        1.9679479069       -0.9379070864
 O          1.4678087317        2.4752877322       -0.5531588920
 O          3.6622029754        2.9316828293       -1.5360342969
 C          3.5790508892        1.1673191029        0.4316946838
 C          4.8890903401        0.7719319089        0.2361295023
 C          5.5554750676        0.1176324681        1.2582470757
 C          4.9020088157       -0.1343468236        2.4554540946
 C          3.5906125848        0.2737299929        2.6386848186
 C          2.9186141980        0.9323673780        1.6198856014
 H          1.8949691641        1.2521785300        1.7441966511
 H          3.0736261696        0.0823596652        3.5656815435
 H          5.4167662900       -0.6482730350        3.2517834306
 H          6.5775778346       -0.1954304119        1.1192677645
 H          5.3661159112        0.9977126624       -0.7036325269
 H          3.3470270082        0.8146017350       -2.7911513731
 H          3.1952484547       -1.5192724588       -3.3343087669
 H          2.2814821277       -3.7207261780       -2.6994492886
 H          0.7506747677       -3.9566105384       -0.8442626981
 H          0.4436547274       -1.4786843794        1.7029629816
 C         -0.9596091588       -3.0193695579        1.3553363187
 C         -1.5422046162       -4.0934225787        0.4926185895
 C         -0.4284483034       -4.4192602663        1.4443481821
 H         -0.6762019069       -4.9870406917        2.3294076009
 H          0.5565967126       -4.6295684412        1.0627257887
 H         -2.5368107485       -4.4423657292        0.7309923466
 H         -1.3538540192       -4.0437002504       -0.5670382244
 H         -1.5804923186       -2.7114482656        2.1952726843
