  62
        -98.94522382
 C          0.9653745203        1.5272809715       -0.6631725681
 C          2.1957565164        1.7851172864       -0.0021829449
 C          3.2346601578        0.7596200439       -0.1328374592
 C          2.9918251286       -0.3417436590       -0.8660204036
 C          3.9555576430       -1.4703862720       -1.1145790437
 C          4.0014596632       -2.5156841450        0.0080994997
 C          4.6886850090       -2.0622458301        1.2963787113
 H          4.8450547153       -2.9535415518        1.9072844044
 H          5.6720496532       -1.6538857825        1.0613932315
 C          3.8851064581       -1.0395911617        2.1119438658
 H          2.8456961983       -1.0390257390        1.7753233952
 H          3.8818781105       -1.3322187989        3.1643018027
 C          4.4251755374        0.3885325046        2.0408515392
 H          5.4173083951        0.4297649143        2.4961749799
 H          3.7617621039        1.0363934701        2.6195357250
 C          4.5171622290        0.9551043979        0.6181367182
 H          4.7004482285        2.0301691685        0.6880966747
 H          5.3461258909        0.4936576114        0.0817150197
 H          2.9797341745       -2.8233941798        0.2350385859
 H          4.5390305732       -3.3845762272       -0.3783857679
 H          3.6250824484       -1.9628266741       -2.0313593473
 H          4.9551474736       -1.0664372084       -1.2790196777
 O          1.8128603148       -0.5414039845       -1.5086849026
 C          0.7696703322        0.3711878821       -1.4199380451
 O         -0.2401554490        0.0249841574       -2.0638179909
 H         -1.6073315974        0.3202215690       -0.2593585127
 C         -1.7539496223        0.9857985243        0.5757810265
 C         -1.0724121359        2.1943813747        0.6187861532
 C         -1.2812688989        3.0439661455        1.6987181752
 C         -2.1597085447        2.6931330192        2.7085709351
 C         -2.8427416773        1.4920592754        2.6597399718
 C         -2.6334883410        0.6299373247        1.5875127239
 N         -3.2690887205       -0.6144921123        1.5462171111
 S         -3.5105158663       -1.4694670977        0.1354762351
 O         -3.9442605673       -0.6167734714       -0.9461109223
 O         -4.4499804714       -2.5042483547        0.5220563784
 C         -1.9507556659       -2.2446978031       -0.2257654764
 C         -1.1139256628       -2.6007553872        0.8126682186
 C          0.0602069155       -3.2761770829        0.5226927532
 C          0.3722507096       -3.5892453468       -0.7914828004
 C         -0.4777090275       -3.2226044025       -1.8215208074
 C         -1.6516590123       -2.5438001988       -1.5386507636
 H         -2.3295182399       -2.2244685754       -2.3138372665
 H         -0.2270416195       -3.4518035123       -2.8447889239
 H          1.2849692323       -4.1186256764       -1.0174852808
 H          0.7262391128       -3.5566060891        1.3242171460
 H         -1.3823420770       -2.3403279710        1.8234620413
 H         -3.9823986710       -0.7793929868        2.2395644485
 H         -3.5284049892        1.2164041093        3.4462207483
 H         -2.3154163296        3.3615067506        3.5417011159
 H         -0.7414095903        3.9780130944        1.7483614510
 C         -0.1212293763        2.5745005163       -0.4915904407
 H          0.4066608020        3.4871791367       -0.1817037666
 C         -0.8965654072        2.8791800388       -1.7580915710
 C         -1.5396622290        4.2239335385       -1.9098156098
 C         -0.3430340614        3.8667720339       -2.7387618702
 H         -0.4788248063        3.6765785055       -3.7927299485
 H          0.6011405805        4.3333442424       -2.4973999625
 H         -2.5031725556        4.2798905558       -2.3929328349
 H         -1.4064721388        4.9374908536       -1.1107279121
 H         -1.4249776514        2.0224585796       -2.1567023352
 O          2.4172146176        2.8346716694        0.6596453876
