  62
        -98.94586176
 C         -2.1967868491       -0.0527082118       -0.1100796441
 C         -2.1184957436       -1.1217158990       -1.0403764938
 C         -1.5843551296       -2.3899100601       -0.5312960220
 C         -1.2312530943       -2.4938158735        0.7621289967
 C         -0.7010808653       -3.7258039914        1.4436563785
 C          0.8118579672       -3.9292449188        1.2846579514
 C          1.2646886825       -4.3645619296       -0.1091236017
 H          2.3060905189       -4.6808967141       -0.0246317490
 H          0.6850793449       -5.2316902226       -0.4278136094
 C          1.1723208371       -3.2639524343       -1.1749878332
 H          2.0915728544       -3.2426839341       -1.7656211178
 H          1.0968274964       -2.2852398857       -0.6947354266
 C          0.0128110889       -3.4205044483       -2.1595536146
 H          0.1662183133       -4.3147826394       -2.7684960156
 H          0.0236348454       -2.5530770941       -2.8257118097
 C         -1.3734096296       -3.5073562236       -1.5065597933
 H         -2.1276423958       -3.4132186804       -2.2920196232
 H         -1.4973143615       -4.4727341785       -1.0155288361
 H          1.1129768495       -4.6998825493        1.9977843787
 H          1.3241863654       -3.0030681443        1.5549133784
 H         -1.2281743586       -4.6043293649        1.0704898740
 H         -0.9233981711       -3.6127592037        2.5068912788
 O         -1.3424164949       -1.4555689823        1.6295239985
 C         -1.7621870777       -0.1961539046        1.2088513437
 O         -1.7008194728        0.6685936299        2.1005992050
 O         -2.4771736453       -1.0180170855       -2.2441532311
 C         -2.6150835522        1.3092785628       -0.6398516294
 C         -1.5199876931        2.2967246822       -0.3229781764
 C         -1.6649850486        3.3681528102        0.5471416029
 C         -0.5847535722        4.1882132494        0.8241938536
 C          0.6538161810        3.9502434757        0.2568173269
 C          0.8091194023        2.8813897358       -0.6201480559
 C         -0.2813376779        2.0792053418       -0.9154560291
 H         -0.1599359775        1.2540657351       -1.6031766103
 N          2.0516177630        2.6252999805       -1.2267063215
 S          2.6816431806        1.0828271166       -1.3456435197
 O          4.0094745020        1.2807567315       -1.8838929398
 O          1.7997375629        0.2422527680       -2.1124570866
 C          2.8111935055        0.4857236998        0.3289045309
 C          4.0401742507        0.5058175060        0.9592488490
 C          4.1275736141        0.0743021979        2.2729515335
 C          2.9876538045       -0.3529828399        2.9374858057
 C          1.7595206969       -0.3601438550        2.2940256942
 C          1.6700816751        0.0569125332        0.9755534750
 H          0.7272498642        0.0569926682        0.4503070881
 H          0.8620055043       -0.6747326893        2.8043159316
 H          3.0524980523       -0.6831158446        3.9622337841
 H          5.0810943139        0.0761793308        2.7760347591
 H          4.8985024382        0.8474252273        0.4037365462
 H          2.7792142967        3.2770556855       -0.9704116667
 H          1.4964809907        4.5840759648        0.4880319403
 H         -0.7052567397        5.0162626413        1.5060023097
 H         -2.6147390904        3.5437636204        1.0247541961
 H         -2.6357078047        1.1732797338       -1.7346584157
 C         -4.0052423929        1.7766250153       -0.2434247234
 C         -5.1098242248        0.7858698063       -0.0295314215
 C         -4.5855220318        1.5843368549        1.1241855136
 H         -5.2101543834        2.3702706617        1.5235235781
 H         -3.9797468700        1.0892650193        1.8652651099
 H         -6.0914858993        1.0154344805       -0.4159875376
 H         -4.8525053398       -0.2623288527       -0.0838953258
 H         -4.2769137428        2.6935283706       -0.7585626676
