  62
        -98.94023607
 C         -2.4445841377       -0.9175853132       -0.0179747686
 C         -2.6615739340        0.4567782183        0.2433695424
 C         -4.0363386640        0.8237626846        0.6068915504
 C         -4.9820734771       -0.1288570108        0.6994352559
 C         -6.4201138537        0.0850513304        1.0876191363
 C         -7.3232668730        0.5197963476       -0.0746389947
 C         -7.1208805738        1.9583920587       -0.5517856959
 H         -7.9568228861        2.1974258464       -1.2121007568
 H         -7.1765228313        2.6344161624        0.3019356620
 C         -5.8086106814        2.1942481419       -1.3126318681
 H         -5.3965619392        1.2353193079       -1.6354769659
 H         -6.0102011025        2.7753270431       -2.2154076719
 C         -4.7415104670        2.9477122359       -0.5183601654
 H         -5.0907641805        3.9601726502       -0.3038562554
 H         -3.8440897504        3.0250706429       -1.1376250403
 C         -4.3467554687        2.2768655807        0.8039052606
 H         -3.4406804988        2.7603612636        1.1773599048
 H         -5.1401384304        2.4013326435        1.5405395095
 H         -7.1710332167       -0.1664981654       -0.9108049366
 H         -8.3578115479        0.4125103728        0.2593995492
 H         -6.7844719663       -0.8719399932        1.4671173853
 H         -6.4769707021        0.8217765559        1.8893252526
 O         -4.7244155241       -1.4436416612        0.4643721153
 C         -3.4611169660       -1.8665998018        0.0847984554
 O         -3.3690171168       -3.0947851050       -0.1179113202
 H          1.4340167772       -0.2476550452       -0.7183151643
 C          1.1780831471       -0.4641885355        0.3050881526
 C         -0.0447870545       -1.0308848101        0.6252958450
 C         -0.3259954674       -1.2955353030        1.9636745474
 C          0.5888829989       -0.9892081628        2.9517911679
 C          1.8122858999       -0.4293602870        2.6270974118
 C          2.1042206433       -0.1641112339        1.2951297489
 N          3.3275634157        0.4222060201        0.9324069377
 S          4.0461064239       -0.0519762229       -0.5198529446
 O          3.4773718359        0.7140031571       -1.5998580192
 O          3.9867902175       -1.4900349910       -0.6551201838
 C          5.7266938921        0.4728850104       -0.2329305442
 C          6.0488347228        1.8030275723       -0.4268148928
 C          7.3462849827        2.2210744246       -0.1773936911
 C          8.2946321999        1.3079568347        0.2596097457
 C          7.9570872133       -0.0238367623        0.4478690062
 C          6.6608682936       -0.4485148044        0.2014280155
 H          6.3549914051       -1.4749505778        0.3252419144
 H          8.6974336809       -0.7317649027        0.7840576624
 H          9.3040034502        1.6359540106        0.4516068069
 H          7.6131997423        3.2550312204       -0.3255348748
 H          5.2809650361        2.4738667948       -0.7755778181
 H          3.9946993529        0.4427239540        1.6914887854
 H          2.5293575520       -0.1932152747        3.3986520130
 H          0.3522161595       -1.1962952424        3.9847956810
 H         -1.2779829560       -1.7431238925        2.2172263310
 C         -1.0648915902       -1.3996624701       -0.4248148492
 H         -1.1234881553       -2.4980049144       -0.4665689830
 C         -0.7182258363       -0.8807496633       -1.8048972317
 C          0.2239567896       -1.6443106132       -2.6846087293
 C         -1.2381343492       -1.6017907203       -3.0104854102
 H         -1.5609163630       -1.0199700732       -3.8607753159
 H         -1.8263959468       -2.4918211242       -2.8393011009
 H          0.9123006043       -1.0892356945       -3.3049895362
 H          0.6351923916       -2.5644925905       -2.2966431976
 H         -0.6844007633        0.2026352547       -1.8451845370
 O         -1.7583127460        1.3310378450        0.1821890390
