  62
        -98.94502269
 C          0.8087173700        1.5795099779       -1.1210417148
 C          2.1143663846        1.7495534343       -0.5950256570
 C          3.0431263022        0.6305953122       -0.7763761572
 C          2.6276743393       -0.4803654336       -1.4097850522
 C          3.4364724160       -1.7289384047       -1.6335417089
 C          3.4345464150       -2.6752689292       -0.4246024094
 C          4.3059107923       -2.2274190876        0.7497720128
 H          4.4153659044       -3.0882790518        1.4126775798
 H          5.3009487693       -1.9641332825        0.3880519686
 C          3.7197152356       -1.0608877451        1.5576539543
 H          3.8153103857       -1.2763987955        2.6250581355
 H          2.6494604730       -0.9766389744        1.3510074402
 C          4.3933878232        0.2893425302        1.3097244360
 H          3.8593768178        1.0467173993        1.8895478359
 H          5.4250928894        0.2540200288        1.6686822950
 C          4.4036671351        0.7376071776       -0.1568937775
 H          4.7010340015        1.7890589476       -0.1892038387
 H          5.1264938561        0.1515148949       -0.7244170574
 H          3.7923337936       -3.6493278354       -0.7674866449
 H          2.4058789925       -2.7975737933       -0.0744471291
 H          2.9852540028       -2.2478584297       -2.4821224242
 H          4.4628780452       -1.4665522678       -1.8920544738
 O          1.3868704503       -0.5897224409       -1.9458076998
 C          0.4334568608        0.4122976170       -1.7878148683
 O         -0.6650040541        0.1329376097       -2.3006857189
 H         -1.1805551822        0.3372906055        0.0843760679
 C         -1.2063736417        1.0908179916        0.8545808506
 C         -0.7725505013        2.3773555424        0.5677362987
 C         -0.8286394023        3.3379233209        1.5695926065
 C         -1.2869806599        3.0048855504        2.8331550656
 C         -1.6676336738        1.7080073643        3.1286056158
 C         -1.6187571250        0.7415247971        2.1297102766
 N         -1.9833602857       -0.5894666305        2.3728179329
 S         -1.2109970706       -1.8213745441        1.5368467626
 O         -1.4320875599       -2.9955813345        2.3587206935
 O          0.1726512451       -1.5070112598        1.2659728109
 C         -2.1408379107       -2.0090950539        0.0326593718
 C         -1.5009967748       -2.5046399437       -1.0843264183
 C         -2.2326325266       -2.7027673065       -2.2438386725
 C         -3.5845091589       -2.4024707509       -2.2651811657
 C         -4.2138442752       -1.9078498584       -1.1331655529
 C         -3.4890962640       -1.7119425643        0.0305691053
 H         -3.9447623947       -1.3238645733        0.9265620357
 H         -5.2652767464       -1.6697073003       -1.1554061461
 H         -4.1492561141       -2.5496269746       -3.1723868779
 H         -1.7390584032       -3.0765716705       -3.1263886432
 H         -0.4418745543       -2.7049239623       -1.0366519374
 H         -2.1548966520       -0.8283029779        3.3382710558
 H         -1.9903180897        1.4412787997        4.1233678091
 H         -1.3244274999        3.7583842612        3.6052234260
 H         -0.4867510162        4.3412721461        1.3625470176
 C         -0.1959081562        2.6724354840       -0.7950968746
 H          0.3964368877        3.5976732757       -0.7111810171
 C         -1.2532636852        2.8977673206       -1.8629775321
 C         -2.6754112909        2.4557758737       -1.7165489488
 C         -2.3358161086        3.9122599854       -1.6383994043
 H         -2.6183342654        4.5563537093       -2.4571094492
 H         -2.3807897142        4.3830336758       -0.6678769408
 H         -2.9594078144        1.9458410002       -0.8094208065
 H         -3.1722193050        2.0796067684       -2.5971864567
 H         -0.8348268970        2.8419733449       -2.8623352950
 O          2.4853515940        2.7968170141        0.0026528822
