  62
        -98.93488537
 C         -2.4191963437       -1.3338605371        0.4668479531
 C         -2.4508705967       -0.4761988430       -0.6573260247
 C         -3.4178143149        0.6439908404       -0.6145533320
 C         -4.1730986973        0.8139563075        0.4855719028
 C         -5.1991056270        1.8801460156        0.7663273019
 C         -4.5687647913        3.2377619710        1.1126618229
 C         -3.4169837821        3.6597081985        0.2043502625
 H         -2.6289678879        2.9048147575        0.2460103793
 H         -2.9969074827        4.5851351929        0.6076489945
 C         -3.7976267817        3.9152304068       -1.2521727483
 H         -2.9091004722        4.3086885559       -1.7529505704
 H         -4.5695995150        4.6869616393       -1.2906515126
 C         -4.2842908365        2.6973278980       -2.0412187359
 H         -4.2605158387        2.9671538792       -3.1009814433
 H         -5.3189752687        2.4621583481       -1.8062243275
 C         -3.4153873805        1.4527752743       -1.8894208981
 H         -2.3682404663        1.7187849237       -2.0776053755
 H         -3.6776218384        0.7457665902       -2.6859000370
 H         -4.1846281797        3.1827065256        2.1343006911
 H         -5.3515550750        3.9976909620        1.0874321341
 H         -5.8801589966        1.9738917588       -0.0741801362
 H         -5.7775279583        1.5368486316        1.6270194020
 O         -4.0599149484       -0.0016811445        1.5738953529
 C         -3.1927308909       -1.0755120466        1.6000472216
 O         -3.1925487296       -1.7102976737        2.6743510126
 H          0.0342874171       -0.6491691033        1.5852772381
 C          0.5436697432       -1.1334255359        0.7598489914
 C         -0.1072515498       -2.1510992444        0.0728605498
 C          0.5481348708       -2.7552773976       -0.9912745201
 C          1.8187678876       -2.3435233368       -1.3535433853
 C          2.4649046541       -1.3342742810       -0.6639113495
 C          1.8156948992       -0.7176330029        0.3978850358
 N          2.4660945636        0.2949411662        1.1224696903
 S          3.3113566407        1.4868540519        0.3007343262
 O          3.3721071466        2.6000365099        1.2238287951
 O          2.7385476072        1.7620543393       -0.9963164227
 C          4.9426911910        0.7953433750        0.1204643935
 C          5.5601316523        0.8003250627       -1.1148764739
 C          6.8345820138        0.2667203492       -1.2294002015
 C          7.4658069786       -0.2585515939       -0.1124168553
 C          6.8331041581       -0.2532066160        1.1218694375
 C          5.5599312905        0.2799367961        1.2434731061
 H          5.0349193094        0.3036388030        2.1837653528
 H          7.3266631487       -0.6630190474        1.9883523890
 H          8.4564566472       -0.6749930598       -0.2043449281
 H          7.3278329468        0.2621374296       -2.1881287451
 H          5.0273451237        1.2121899618       -1.9573089560
 H          1.9072384603        0.6930110577        1.8628795560
 H          3.4518656262       -1.0086042156       -0.9489417840
 H          2.3140563643       -2.8155086631       -2.1884156951
 H          0.0542196045       -3.5290996156       -1.5550903707
 C         -1.4912519455       -2.5346196094        0.5369748953
 H         -1.4256418831       -2.7752171524        1.6113825474
 C         -2.0343888989       -3.7793531863       -0.1491437763
 C         -3.5102594767       -4.0159152092       -0.2611887234
 C         -2.7013355629       -3.7329657800       -1.4895855463
 H         -2.5202805729       -4.5440288266       -2.1798025627
 H         -2.8012623194       -2.7701014662       -1.9645404697
 H         -4.1708281121       -3.2445563760        0.1080115015
 H         -3.8814604986       -5.0178626337       -0.1063945746
 H         -1.4255757659       -4.6529244484        0.0624517224
 O         -1.7152861459       -0.6205947503       -1.6678756724
