  62
        -98.92965630
 C          2.1634068626        0.3399319882        0.5375091010
 C          3.2894318395        0.7790980928       -0.1974656969
 C          4.3191855194       -0.2374865362       -0.5089309031
 C          4.1218912543       -1.5094684270       -0.1193764306
 C          5.0336583411       -2.6935718501       -0.3015347125
 C          6.2197801112       -2.6840177372        0.6773468319
 C          6.8876861273       -1.3242836475        0.8661929353
 H          6.1405348683       -0.6025993873        1.2017194841
 H          7.6238117593       -1.4248431370        1.6681908206
 C          7.6084174972       -0.7762145472       -0.3630772862
 H          8.3914292018       -1.4774515116       -0.6603262974
 H          8.0937036633        0.1568952814       -0.0656752773
 C          6.7289563159       -0.4877833820       -1.5809509531
 H          6.4617529781       -1.4063411799       -2.0961069068
 H          7.3290014618        0.0986588601       -2.2829537505
 C          5.4796162861        0.3367173541       -1.2863841868
 H          5.7710316602        1.2510638729       -0.7573182674
 H          5.0562488391        0.6785794554       -2.2384533425
 H          6.9575529653       -3.4106283420        0.3331198817
 H          5.8527003385       -3.0117229121        1.6530619447
 H          5.3780230187       -2.7431272617       -1.3302606257
 H          4.4312160791       -3.5841484412       -0.1092478965
 O          3.0100203348       -1.8919864972        0.5744793589
 C          2.0227801687       -0.9949472786        0.9238102076
 O          1.0832720437       -1.4944611378        1.5781751491
 O          3.4600782699        1.9632990668       -0.5852442159
 C          1.0262663742        1.2608295139        0.9497671318
 C          0.0026085674        1.3527240880       -0.1528246081
 C          0.3596442312        1.7610370808       -1.4352225094
 C         -0.5902447630        1.8265901384       -2.4372060577
 C         -1.9059229789        1.4786701501       -2.1853846432
 C         -2.2727906183        1.0693559009       -0.9089582507
 C         -1.3186116294        1.0133056734        0.0983185464
 H         -1.6119883528        0.6741612620        1.0806465786
 N         -3.6108029059        0.7428014545       -0.6208203133
 S         -3.9094264344       -0.5855577000        0.3822549376
 O         -3.7152128155       -0.1839387299        1.7522846137
 O         -3.1543840024       -1.7300057441       -0.0764993435
 C         -5.6492067147       -0.8279506476        0.0728042671
 C         -6.0518876229       -1.8038544127       -0.8190119669
 C         -7.4055866641       -1.9659884279       -1.0694010238
 C         -8.3281079836       -1.1518454757       -0.4297505171
 C         -7.9086800909       -0.1765263365        0.4629449323
 C         -6.5569862758       -0.0100870094        0.7189006909
 H         -6.1845469741        0.7265331495        1.4113345964
 H         -8.6289735504        0.4525039620        0.9605745924
 H         -9.3808205601       -1.2806907499       -0.6257900341
 H         -7.7344366816       -2.7258329222       -1.7598937587
 H         -5.2988182565       -2.4189197881       -1.2852538369
 H         -4.1768519769        0.6865626884       -1.4576878446
 H         -2.6445150984        1.5239517413       -2.9715492478
 H         -0.3019412744        2.1446410100       -3.4278982748
 H          1.3875728051        2.0247510825       -1.6320351422
 H          0.5437186220        0.7527219914        1.8006588072
 C          1.5060870277        2.6193064786        1.4458982441
 C          1.1785684278        3.9158166994        0.7738078093
 C          0.5231360550        3.5639425997        2.0728225637
 H          0.8122458580        4.0966021559        2.9661715086
 H         -0.5180307472        3.2765307996        2.0471499362
 H          1.9426216525        4.6780064807        0.7665605738
 H          0.5778273733        3.8924238409       -0.1212101689
 H          2.4829926283        2.5568577334        1.9139128061
