  62
        -98.93782480
 C         -1.2098885648       -1.5189101313        0.3517489476
 C         -1.7241815094       -0.5266997677        1.2199843425
 C         -2.9009085608        0.2355220099        0.7617666138
 C         -3.3926445149       -0.0161375525       -0.4649999707
 C         -4.5518369642        0.6441631916       -1.1632384383
 C         -4.1978440947        2.0364156147       -1.7080337384
 C         -3.4212252293        2.9263362753       -0.7410981868
 H         -2.4804830053        2.4379910877       -0.4764232297
 H         -3.1570749046        3.8434642493       -1.2751778402
 C         -4.1754295339        3.3245833573        0.5259582809
 H         -3.5434886799        4.0353019052        1.0648957496
 H         -5.0942842890        3.8443339445        0.2448686491
 C         -4.5332614321        2.1864773574        1.4850007405
 H         -5.4000880136        1.6329311818        1.1340015900
 H         -4.8207828408        2.6433028190        2.4364856505
 C         -3.3858462006        1.2292747256        1.7893773605
 H         -3.6494586608        0.6357487430        2.6732704436
 H         -2.5049251539        1.8114629075        2.0845822418
 H         -5.1219354333        2.5363579698       -2.0044383732
 H         -3.5819334306        1.9046971881       -2.6013545783
 H         -4.8179105842        0.0002705295       -2.0046770028
 H         -5.4101648398        0.6952697941       -0.4998572730
 O         -2.8300598237       -0.9406559204       -1.2937386919
 C         -1.7192146278       -1.6854889513       -0.9363687696
 O         -1.3041304109       -2.4371387868       -1.8383082350
 O         -1.2107797287       -0.2705722942        2.3437569205
 C          0.0329775770       -2.2673802373        0.7975447341
 C          1.1339725756       -2.0785923750       -0.2172043324
 C          1.9624453105       -3.0918588307       -0.6799534173
 C          2.9648877743       -2.8086585708       -1.5928905786
 C          3.1767567825       -1.5197161904       -2.0470698016
 C          2.3493837569       -0.4987935987       -1.5914359014
 C          1.3437904184       -0.7888010931       -0.6866860637
 H          0.6856960985        0.0029058497       -0.3650716623
 N          2.5099650483        0.8240266014       -2.0263623557
 S          2.1154970265        2.0949039641       -1.0178437275
 O          0.6846987886        2.2350525943       -0.9085955628
 O          2.8163270636        3.2263995979       -1.5876371750
 C          2.8407378901        1.6764652176        0.5580953125
 C          2.0503203582        1.3640325514        1.6446664920
 C          2.6609525451        1.0026489935        2.8357432872
 C          4.0434397260        0.9624188031        2.9211202619
 C          4.8253199439        1.2889668850        1.8230371015
 C          4.2205826724        1.6467234377        0.6298831381
 H          4.7937726230        1.9179727331       -0.2416953607
 H          5.9006951101        1.2623434221        1.8932489800
 H          4.5124801220        0.6772221394        3.8495299249
 H          2.0445122937        0.7481869665        3.6833552321
 H          0.9753193377        1.3960015979        1.5555552660
 H          3.3334113701        1.0056152011       -2.5796594194
 H          3.9600246612       -1.3050026570       -2.7575177203
 H          3.5959494748       -3.6065922186       -1.9537472150
 H          1.8133057320       -4.1050012598       -0.3449044781
 H          0.3450533650       -1.7334942761        1.7124524140
 C         -0.1895235915       -3.7157160006        1.2055916051
 C         -1.5566112651       -4.2297247642        1.5426202801
 C         -0.8567318361       -4.7151512578        0.3104628823
 H         -0.4791402818       -5.7274061941        0.3033684668
 H         -1.2055690255       -4.3681437104       -0.6488636567
 H         -1.6606035509       -4.9037301305        2.3798811964
 H         -2.3900976917       -3.5528600024        1.4190316676
 H          0.6214465725       -4.0895677373        1.8232126377
