  62
        -98.93408048
 C          2.0002756745        1.5463559501        0.4805356114
 C          2.0157081967        0.3318344253        1.2103467366
 C          3.0857913162       -0.6282286864        0.8965661020
 C          3.9844700329       -0.3200470180       -0.0568119479
 C          5.1907831829       -1.0778534856       -0.5707119393
 C          5.3733470039       -2.5600292249       -0.2536327231
 C          4.3408762272       -3.4864677660       -0.8960454379
 H          4.5167949591       -3.5053781303       -1.9745873976
 H          4.5068782446       -4.4965289188       -0.5150025407
 C          2.8785106175       -3.1057795274       -0.6761558970
 H          2.2621303439       -3.8434971018       -1.1966923337
 H          2.6771446272       -2.1376028315       -1.1391457468
 C          2.4222264841       -3.0621614670        0.7808406459
 H          2.6348999482       -4.0183168362        1.2629561867
 H          1.3394869025       -2.9137825956        0.7798122552
 C          3.0345317826       -1.9362821745        1.6311259045
 H          2.3857332969       -1.7758322072        2.4970441839
 H          4.0181826118       -2.2086646529        2.0055666939
 H          6.3555265170       -2.8417877688       -0.6432400151
 H          5.4075604952       -2.7132640960        0.8210323216
 H          5.1859746677       -0.9419583134       -1.6568811256
 H          6.0659010821       -0.5343198638       -0.1973864433
 O          3.9385770923        0.8679644723       -0.7251437474
 C          2.9447668172        1.8144108532       -0.5086722215
 O          3.0373370377        2.8105380695       -1.2479402460
 O          1.1649843147        0.0637442709        2.1011528419
 C          0.8568899457        2.4961146986        0.7907644574
 C         -0.3487093383        2.0698577935       -0.0075479219
 C         -0.2840688946        1.9531259086       -1.3930800993
 C         -1.3842601959        1.5217393846       -2.1107693861
 C         -2.5613058785        1.1834783805       -1.4648086369
 C         -2.6283007853        1.2753629974       -0.0812239057
 C         -1.5263235133        1.7245063010        0.6368357426
 H         -1.5790793082        1.7854817025        1.7150187676
 N         -3.8115669257        0.9192230949        0.5867731052
 S         -4.5999913866       -0.4894961200        0.1465097353
 O         -5.2827555346       -0.2855700627       -1.1063104300
 O         -5.4350590074       -0.8163105669        1.2796274250
 C         -3.3189074723       -1.7145360189       -0.0503886335
 C         -2.9648840499       -2.1477610900       -1.3117576071
 C         -1.9511419908       -3.0840736911       -1.4378419985
 C         -1.3138928617       -3.5690909471       -0.3066330046
 C         -1.6811933909       -3.1241050334        0.9542447990
 C         -2.6907460920       -2.1852393944        1.0856800298
 H         -3.0067482604       -1.8252870726        2.0515796205
 H         -1.1825523605       -3.5006155403        1.8332021932
 H         -0.5279226989       -4.3014055754       -0.4064735205
 H         -1.6619430974       -3.4324780776       -2.4162981741
 H         -3.4921553740       -1.7556983437       -2.1658425274
 H         -3.7511538342        0.9956838176        1.5915925886
 H         -3.4275332582        0.8504863042       -2.0125373386
 H         -1.3254417827        1.4442799764       -3.1859244495
 H          0.6394900468        2.2012943245       -1.8955663025
 H          0.6253227814        2.3204649092        1.8534870833
 C          1.2051882474        3.9683401241        0.6426808349
 C          0.6113478982        4.8640306991       -0.3987594268
 C          0.1968262211        5.0089543459        1.0327692164
 H          0.5290068573        5.8733280435        1.5874336028
 H         -0.7912179666        4.6644766094        1.3004344852
 H          1.2538979282        5.6137969189       -0.8344334701
 H         -0.1001685350        4.4463122677       -1.0933047261
 H          2.2370855226        4.1695169993        0.9098043182
