  62
        -98.94088738
 C         -2.3099633000       -0.4084793819        0.2613804779
 C         -3.5538171300       -0.9255095143        0.6958278350
 C         -4.6923069799       -0.0003269238        0.6303088203
 C         -4.4932045198        1.2557979587        0.1902719574
 C         -5.5730980197        2.2845618098        0.0225816733
 C         -6.1697952897        2.2386880378       -1.3911752869
 C         -6.5608207299        0.8344757005       -1.8519087949
 H         -6.9948502999        0.9291280462       -2.8496562643
 H         -5.6575648900        0.2279724210       -1.9512496984
 C         -7.5544179799        0.1164655654       -0.9279440589
 H         -8.3273723900       -0.3512268211       -1.5413352415
 H         -8.0488453899        0.8418165017       -0.2809028048
 C         -6.9372441700       -0.9894832096       -0.0700408152
 H         -6.3621214501       -1.6680022260       -0.7051105391
 H         -7.7506107501       -1.5684197920        0.3753460815
 C         -6.0316565299       -0.5178352262        1.0745613174
 H         -6.5548359698        0.2300098705        1.6737073017
 H         -5.8216864900       -1.3831321998        1.7100370625
 H         -7.0457819697        2.8893338981       -1.4171527332
 H         -5.4306211697        2.6348977317       -2.0912916847
 H         -6.3517283797        2.1100249956        0.7625832224
 H         -5.1371533696        3.2705596788        0.1916176289
 O         -3.2789656598        1.7226174808       -0.2006406399
 C         -2.1585504798        0.9044800106       -0.1833143846
 O         -1.1125357898        1.4569612827       -0.5758149915
 O         -3.7021369501       -2.1018887767        1.1237289884
 C         -1.0930806501       -1.3141019622        0.2818888427
 C          0.0063721300       -0.7071384370        1.1176892461
 C         -0.3021133199       -0.2097539942        2.3815333490
 C          0.6753253802        0.3595018212        3.1733781422
 C          1.9813064602        0.4437754537        2.7235662126
 C          2.3051439401       -0.0675660093        1.4728195297
 C          1.3205565200       -0.6448348047        0.6820325964
 H          1.5958110600       -1.0267946192       -0.2857743557
 N          3.6393312301       -0.0452394169        1.0256394298
 S          3.9977993401        0.2394137223       -0.5988582486
 O          3.4644254102        1.5156552248       -1.0214425914
 O          3.6135607999       -0.9093774932       -1.3782784751
 C          5.7770063501        0.3194572216       -0.4954500682
 C          6.4092620802        1.5480732415       -0.4909045513
 C          7.7906640702        1.5911123907       -0.3828926911
 C          8.5119065301        0.4113820600       -0.2789196878
 C          7.8632281400       -0.8147193899       -0.2857895747
 C          6.4828269900       -0.8646553691       -0.3950319850
 H          5.9364734399       -1.7930382089       -0.4138040602
 H          8.4276126099       -1.7298704204       -0.2072254400
 H          9.5865728401        0.4476238695       -0.1946556976
 H          8.2976633603        2.5425843506       -0.3806616457
 H          5.8079761403        2.4385168920       -0.5821298162
 H          4.2238324602        0.5388544098        1.6095713531
 H          2.7434230803        0.8982172801        3.3384893252
 H          0.4184191203        0.7491801857        4.1471081344
 H         -1.3247187299       -0.2671883460        2.7297803687
 H         -1.4262674801       -2.2409965149        0.7736078175
 C         -0.6615350701       -1.6442013042       -1.1316570392
 C          0.0147988397       -2.9473215025       -1.4316630566
 C         -1.3924472203       -2.7108079598       -1.8885824452
 H         -1.5773452803       -2.5609223138       -2.9417806743
 H         -2.1905860703       -3.2239864627       -1.3720738081
 H          0.8056796997       -2.9562734285       -2.1668513867
 H          0.1719125597       -3.6275113272       -0.6081857004
 H         -0.3434700901       -0.7662884011       -1.6853477642
