  62
        -98.93361112
 C         -2.1382072882       -1.3005307711        0.5110807935
 C         -2.0693765997       -0.3055908854       -0.4960397570
 C         -2.8948338623        0.8955849349       -0.2749743516
 C         -3.6088192649        1.0086515564        0.8585828928
 C         -4.5542506381        2.1282147940        1.1897134241
 C         -5.8751793044        1.9507582318        0.4139510997
 C         -6.1508382881        3.0429732429       -0.6195355139
 H         -6.9820762455        2.7028315922       -1.2406131689
 H         -6.4747191494        3.9480217910       -0.1014762139
 C         -4.9733995881        3.4179446289       -1.5247561025
 H         -5.3831584597        3.9926021242       -2.3580782429
 H         -4.2961818320        4.0859378504       -0.9901612458
 C         -4.1600189126        2.2455708964       -2.0883017533
 H         -4.7636607624        1.3382392807       -2.1194883586
 H         -3.8898729537        2.4838411333       -3.1189975978
 C         -2.8458662029        1.9580507870       -1.3378224674
 H         -2.4580457561        2.8857428340       -0.9065977481
 H         -2.1013019384        1.6002930667       -2.0556356288
 H         -5.8533127401        0.9774335804       -0.0806267022
 H         -6.7089725181        1.9272300863        1.1171347499
 H         -4.0913606451        3.0823425988        0.9467442268
 H         -4.7359210072        2.0924118172        2.2641914284
 O         -3.6041597483        0.0570998918        1.8288754611
 C         -2.8643244686       -1.1058932137        1.6875652327
 O         -2.9261369783       -1.8723083697        2.6703304681
 O         -1.3633092717       -0.4033302694       -1.5317034025
 C         -1.3276531224       -2.5838329698        0.4214517524
 C          0.0913624123       -2.2486651409        0.0326052620
 C          0.7146990069       -2.7152411761       -1.1160907201
 C          2.0098979867       -2.3283694381       -1.4140325710
 C          2.7094514053       -1.4776893875       -0.5779165229
 C          2.0949364323       -1.0054738218        0.5745670320
 C          0.8012603472       -1.3994471664        0.8734567566
 H          0.3177029210       -1.0226340899        1.7681965525
 N          2.8025631807       -0.1377746274        1.4343334197
 S          3.2681694814        1.3432245091        0.7810033397
 O          3.4422761352        2.2171634462        1.9221157734
 O          2.3446995350        1.7932243367       -0.2352043380
 C          4.8601146659        1.0060751052        0.0597884029
 C          5.8775210230        0.5839770110        0.8932110293
 C          7.1220732174        0.3164612142        0.3457191875
 C          7.3271631123        0.4773688959       -1.0166941973
 C          6.2961951360        0.9059681897       -1.8389167424
 C          5.0482302896        1.1742447634       -1.2979909444
 H          4.2138966160        1.5029198739       -1.8970527955
 H          6.4572296839        1.0311071233       -2.8976149122
 H          8.2965880480        0.2680340079       -1.4405609060
 H          7.9264717695       -0.0162741989        0.9816192715
 H          5.6758509196        0.4781631482        1.9460145008
 H          2.3201183435        0.0272454058        2.3071820855
 H          3.7166488776       -1.1726217554       -0.8105030647
 H          2.4800077496       -2.6911044876       -2.3153220174
 H          0.1755862125       -3.3564670089       -1.7936943792
 H         -1.3077268817       -2.9754436465        1.4522548193
 C         -1.9557189027       -3.6696047909       -0.4384564513
 C         -3.4444102273       -3.7650220605       -0.5863951171
 C         -2.5973602477       -3.3846075030       -1.7615899920
 H         -2.4725811307       -4.1071706879       -2.5549336924
 H         -2.6115142546       -2.3615374451       -2.1012820813
 H         -3.9002700756       -4.7436183921       -0.5720048268
 H         -4.0423984905       -2.9981070614       -0.1150425032
 H         -1.4224450280       -4.6110001472       -0.3485018716
