  62
        -98.94507849
 C         -2.4628073353       -1.2213074308       -0.1007033924
 C         -3.3565799377       -0.6252894204        0.8281302605
 C         -4.0969407672        0.5485402345        0.3568947247
 C         -3.9141188724        0.9892168097       -0.9006919737
 C         -4.5994690725        2.1683172143       -1.5355952717
 C         -3.9296897914        3.5143351969       -1.2262195204
 C         -4.1272065634        4.0260972383        0.2013122865
 H         -3.7999981227        5.0676005532        0.2149946541
 H         -5.1896997682        4.0146135736        0.4463431433
 C         -3.3420409424        3.2496804732        1.2679278451
 H         -2.5497501068        2.6689858794        0.7882397908
 H         -2.8520375552        3.9545822738        1.9434682119
 C         -4.1933786734        2.3154970003        2.1283555409
 H         -4.8985620848        2.9041237481        2.7192203214
 H         -3.5297911231        1.7894862931        2.8192108848
 C         -4.9796857123        1.2645174180        1.3339617870
 H         -5.3680340224        0.5233015605        2.0365273267
 H         -5.8177480423        1.7318385604        0.8177296214
 H         -2.8607551988        3.4299523508       -1.4382536049
 H         -4.3472466271        4.2522578924       -1.9151855627
 H         -4.5632457416        2.0056660460       -2.6149391207
 H         -5.6434411430        2.1989745920       -1.2226800251
 O         -3.0678507396        0.3781663477       -1.7697210465
 C         -2.3020502639       -0.7156072438       -1.3905734588
 O         -1.5516412821       -1.1298296670       -2.2978340600
 O         -3.5294868842       -1.0606646863        1.9969179227
 C         -1.6423697804       -2.4022005569        0.3962754223
 C         -0.2520353955       -1.9108434170        0.7194593083
 C          0.0988405137       -1.6092927705        2.0311907688
 C          1.3438097183       -1.0826317835        2.3253641128
 C          2.2591666910       -0.8345964728        1.3177882287
 C          1.9122559900       -1.1190211955        0.0039018598
 C          0.6736399911       -1.6710098983       -0.2862055059
 H          0.4056230984       -1.8649984276       -1.3136690620
 N          2.8257107659       -0.8318212529       -1.0320359913
 S          3.2945580261        0.7804917416       -1.1573706076
 O          2.2799445850        1.6706919753       -0.6391691495
 O          3.6714882947        0.9677249636       -2.5416907283
 C          4.7582083039        0.8663591122       -0.1457891724
 C          4.8157055394        1.7510013103        0.9131692146
 C          5.9672676550        1.7994228892        1.6836972816
 C          7.0347864565        0.9675738977        1.3824663877
 C          6.9620248590        0.0865337414        0.3135686457
 C          5.8142853929        0.0336362521       -0.4610025565
 H          5.7165651442       -0.6325511227       -1.3017767723
 H          7.7942793352       -0.5584747129        0.0823496869
 H          7.9288468625        1.0064119092        1.9844699695
 H          6.0254609178        2.4838352983        2.5147710052
 H          3.9578316589        2.3733351067        1.1126024079
 H          2.5005689804       -1.1545698818       -1.9334934161
 H          3.2265500218       -0.4129885125        1.5372440356
 H          1.6022060442       -0.8562827229        3.3485881208
 H         -0.6248396668       -1.7714019654        2.8171271124
 H         -2.1196126404       -2.7054731972        1.3376276526
 C         -1.6485433874       -3.5850899473       -0.5490023537
 C         -1.2317364444       -4.9278056082       -0.0301902135
 C         -2.6695259372       -4.6652284269       -0.3603365702
 H         -3.0927195297       -5.1306183598       -1.2378684425
 H         -3.3694614016       -4.5549669056        0.4549437195
 H         -0.6649797050       -5.5775466244       -0.6791061862
 H         -0.9556179348       -4.9948926847        1.0111698852
 H         -1.3836054140       -3.3317780717       -1.5671894741
