  62
        -98.93512278
 C          2.4969927919        1.2770470057        0.4167920590
 C          2.3343003559        0.4391911701       -0.7119143175
 C          3.0960642085       -0.8293922730       -0.7168489287
 C          3.8811898902       -1.1242048374        0.3347068188
 C          4.7132202542       -2.3577810627        0.5645780044
 C          3.8682819728       -3.5704194356        0.9876041268
 C          2.5772632442       -3.7636674094        0.1956331147
 H          1.9590601026       -2.8671487445        0.2827841924
 H          2.0195174127       -4.5810341267        0.6611915611
 C          2.7636592940       -4.1079196129       -1.2802590344
 H          1.7692247192       -4.2951897075       -1.6941689981
 H          3.3384548678       -5.0332399252       -1.3620074664
 C          3.4402626746       -3.0366128279       -2.1379304509
 H          3.2862271417       -3.3149284216       -3.1845410585
 H          4.5147903855       -3.0248148289       -1.9760866731
 C          2.8644919135       -1.6336002469       -1.9731845262
 H          1.7763472546       -1.6754480033       -2.1043953107
 H          3.2293568785       -1.0078133554       -2.7968327707
 H          3.5964783918       -3.4432784470        2.0384318249
 H          4.4846088175       -4.4670718073        0.9047865831
 H          5.2990442305       -2.5833360744       -0.3213552676
 H          5.4084380602       -2.1206130393        1.3729577632
 O          3.9860574414       -0.2972928432        1.4152525466
 C          3.2925065997        0.8940218829        1.4977134904
 O          3.4570382841        1.5116574099        2.5697522596
 H          0.1191171053        0.8517388926        1.7362311224
 C         -0.4034279430        1.3776826480        0.9445805293
 C          0.2804876477        2.3413870722        0.2126333038
 C         -0.3940272604        3.0005868804       -0.8052796815
 C         -1.7129010382        2.6876038156       -1.0861440642
 C         -2.3858977281        1.7212733462       -0.3614341011
 C         -1.7206226943        1.0571715701        0.6609719595
 N         -2.3989530233        0.0709183692        1.4067559933
 S         -3.0128022891       -1.2373756207        0.5442470124
 O         -3.1154691097       -2.3091216492        1.5120943071
 O         -2.2301059116       -1.5151010309       -0.6379326731
 C         -4.6503472051       -0.7081109626        0.0898291686
 C         -5.0257007021       -0.6942262408       -1.2390204756
 C         -6.3084101492       -0.2836079774       -1.5679346013
 C         -7.1870982700        0.1032459330       -0.5676042499
 C         -6.7945298534        0.0818737295        0.7626662630
 C         -5.5144810787       -0.3288820047        1.0985059421
 H         -5.1695213855       -0.3637341307        2.1183373549
 H         -7.4805303579        0.3840094279        1.5374691853
 H         -8.1838566375        0.4236968334       -0.8265549661
 H         -6.6149067612       -0.2659437064       -2.6014666552
 H         -4.3045160789       -0.9959869135       -1.9818777832
 H         -1.8615750375       -0.2691672952        2.1922131250
 H         -3.4103312935        1.4706288051       -0.5839499149
 H         -2.2226654823        3.2001359917       -1.8876691509
 H          0.1221572438        3.7360333605       -1.3998707955
 C          1.7287062247        2.5806185936        0.5636952035
 H          1.7784658106        2.8145392282        1.6404233033
 C          2.3451397872        3.7660842665       -0.1623127396
 C          3.8222653715        3.8329332595       -0.4085386850
 C          2.8774613244        3.6699197636       -1.5591713565
 H          2.7297120172        4.5112344388       -2.2206082289
 H          2.8198621451        2.7121126452       -2.0506633469
 H          4.4175013843        2.9821528272       -0.1090954785
 H          4.3214871038        4.7815033854       -0.2794397335
 H          1.8629811491        4.6994501551        0.1118255891
 O          1.5880374813        0.7162054538       -1.6857294520
