  62
        -98.94531467
 C          1.2963147395        0.8957639403        0.4066635712
 C          2.2309087898        0.8225087912       -0.6560605686
 C          3.0757482698       -0.3801591487       -0.6806760894
 C          2.9073330096       -1.3434214995        0.2416224797
 C          3.6670431496       -2.6397843796        0.3213949388
 C          5.0166259794       -2.5289655301        1.0441597193
 C          6.1135918396       -1.7989988995        0.2681139101
 H          7.0534543695       -1.9844192399        0.7919987202
 H          6.2050166399       -2.2347409786       -0.7272654802
 C          5.9049643996       -0.2826046094        0.1514835614
 H          5.1735412494        0.0429306300        0.8948872414
 H          6.8411892395        0.2322655405        0.3789265420
 C          5.4513754899        0.1902523418       -1.2297457884
 H          6.2378998301       -0.0085523376       -1.9611263883
 H          5.2965171699        1.2713365917       -1.1875560675
 C          4.1505223601       -0.4567642078       -1.7228012892
 H          4.3312097902       -1.4922261476       -2.0096488900
 H          3.8036274703        0.0955171029       -2.5992999489
 H          5.3611532794       -3.5454448103        1.2482719385
 H          4.8588509792       -2.0331540409        2.0048729496
 H          3.0381718395       -3.3375795200        0.8786981181
 H          3.8224599999       -3.0361520887       -0.6823428015
 O          1.9768411393       -1.2505541904        1.2294614696
 C          1.1773075093       -0.1266460605        1.3516415503
 O          0.4040171290       -0.1594161413        2.3313626601
 O          2.3730994200        1.6997377420       -1.5459862779
 C          0.3463311894        2.0712091601        0.5842029119
 C         -0.8006982603        1.9395679009       -0.3898082485
 C         -0.6739356000        2.2793329321       -1.7326677682
 C         -1.7411751898        2.1178662528       -2.5969933886
 C         -2.9457725999        1.6065317124       -2.1474757293
 C         -3.0816539302        1.2591904612       -0.8085565396
 C         -2.0136827704        1.4356485305        0.0602154808
 H         -2.1344143907        1.1709396497        1.0999730506
 N         -4.2967888203        0.7485517408       -0.3239373303
 S         -4.3068533706       -0.5249428201        0.7601086986
 O         -5.6580453805       -1.0381599701        0.6867757678
 O         -3.8713282509       -0.0766776912        2.0570818591
 C         -3.1757970204       -1.7192970995        0.0721745779
 C         -1.8936848705       -1.8378932099        0.5663186081
 C         -1.0286505203       -2.7404652394       -0.0336605424
 C         -1.4551126400       -3.5033886985       -1.1086251332
 C         -2.7503553699       -3.3770036981       -1.5889182034
 C         -3.6183274601       -2.4751299286       -0.9971744629
 H         -4.6363007700       -2.3566813084       -1.3315086730
 H         -3.0821776897       -3.9766872074       -2.4210435540
 H         -0.7746949699       -4.2017123581       -1.5699730936
 H         -0.0235579504       -2.8322639997        0.3480642177
 H         -1.5776195507       -1.2370463906        1.4049314687
 H         -5.0071009701        0.6251889214       -1.0310435706
 H         -3.7767673797        1.4793610529       -2.8243847696
 H         -1.6316245095        2.3869821936       -3.6365716283
 H          0.2720889001        2.6454825124       -2.0974453076
 H         -0.0677281608        1.9683280693        1.5966947617
 C          1.0394459894        3.4152722902        0.4873119432
 C          0.3486474693        4.6248577698        1.0381312841
 C          1.5504672691        4.0643608992        1.7365329839
 H          2.4789010491        4.6136468693        1.6897223546
 H          1.4001236889        3.5418623384        2.6706262934
 H          0.4498105494        5.5615316402        0.5119656349
 H         -0.6174791109        4.4808462394        1.4988878437
 H          1.6324169796        3.5364075310       -0.4090146865
