  62
        -98.93724503
 C          2.0531317906        1.0835713392       -0.1125209001
 C          2.8451122406        0.5579221691        0.9421053699
 C          3.5880492508       -0.6748242607        0.6565537297
 C          3.4647072811       -1.2568606005       -0.5493697004
 C          4.0916465414       -2.5509595903       -0.9966418806
 C          5.6298422214       -2.5710428700       -1.0863875904
 C          6.3301988513       -3.0916253201        0.1748682396
 H          5.6374589113       -3.7333296603        0.7207221394
 H          7.1702402414       -3.7212351599       -0.1252421204
 C          6.8881495910       -2.0215255502        1.1180070199
 H          7.1264726810       -2.5049204003        2.0678044799
 H          7.8209628010       -1.6325504900        0.7036195601
 C          5.9733174308       -0.8265729704        1.3864954500
 H          5.9689593608       -0.1647856202        0.5172222502
 H          6.3977949105       -0.2505506005        2.2109867202
 C          4.5140230808       -1.1952276807        1.7171785598
 H          4.4032169109       -2.2731394408        1.8258930595
 H          4.2119647206       -0.7218723210        2.6534256098
 H          5.9917907712       -1.5754569899       -1.3415073901
 H          5.8876797116       -3.2311574998       -1.9160950004
 H          3.6733927015       -2.7483933402       -1.9859842506
 H          3.7561913514       -3.3487646105       -0.3297460607
 O          2.6843244611       -0.7306265604       -1.5308191204
 C          1.9669437109        0.4417658494       -1.3476858903
 O          1.3167253510        0.7821609895       -2.3579169903
 O          2.9244387403        1.0987151089        2.0769087600
 C          1.2677117804        2.3503826390        0.1923399800
 C         -0.1608238196        1.9802428787        0.5111737398
 C         -0.6361585898        2.0336358484        1.8165071997
 C         -1.9249177498        1.6275015381        2.1153891195
 C         -2.7605109296        1.1480355681        1.1222557993
 C         -2.2903493094        1.0816813785       -0.1823710207
 C         -1.0082835894        1.5124576187       -0.4836234404
 H         -0.6454762693        1.4352387190       -1.4978531804
 N         -3.1227338691        0.5461544885       -1.1929764309
 S         -3.4254564689       -1.1042567716       -1.0229514813
 O         -2.3336805089       -1.7754074815       -0.3522318612
 O         -3.7573275286       -1.5787347114       -2.3489317114
 C         -4.8865298990       -1.1537707320       -0.0061200015
 C         -4.8352554991       -1.7373880422        1.2444718784
 C         -5.9841839692       -1.7608469626        2.0199487783
 C         -7.1568709092       -1.2034857227        1.5333737982
 C         -7.1920572391       -0.6229510625        0.2740504383
 C         -6.0474532290       -0.5969854321       -0.5066151915
 H         -6.0303280590       -0.1619976619       -1.4918518114
 H         -8.1060387492       -0.1912995725       -0.1007874117
 H         -8.0487602693       -1.2222092430        2.1395408981
 H         -5.9583345492       -2.2117564328        2.9989574882
 H         -3.8986374690       -2.1522188721        1.5814061085
 H         -2.7476090891        0.7076631288       -2.1186140108
 H         -3.7619576795        0.8199850279        1.3486250191
 H         -2.2798445799        1.6768322578        3.1334207694
 H          0.0230663700        2.3752325983        2.6012804399
 H          1.7214186002        2.7544752489        1.1071057902
 C          1.3596460903        3.4019939292       -0.8940800598
 C          1.0431836700        4.8260265891       -0.5512571295
 C          2.4573909801        4.4198979994       -0.8350317394
 H          2.9127127602        4.7385543997       -1.7606875293
 H          3.1482680700        4.3622173794       -0.0066100794
 H          0.5243199300        5.4279063592       -1.2812583995
 H          0.7754499999        5.0447566689        0.4712319405
 H          1.0730608905        3.0423297094       -1.8735350299
