  62
        -98.93600080
 C         -1.5705590225       -1.6953194246       -0.1501831211
 C         -1.3390718494       -0.3391773207       -0.4885745784
 C         -2.5486709231        0.4800623152       -0.6899414151
 C         -3.7639709529       -0.0827502308       -0.5715184707
 C         -5.0700550712        0.6408371547       -0.7239632098
 C         -5.5678097973        1.1805756223        0.6237263312
 C         -4.5093575977        1.9659645827        1.3975271278
 H         -4.9790790064        2.3313253052        2.3132694565
 H         -3.7080483564        1.2860204097        1.6954834556
 C         -3.9091236614        3.1462870157        0.6218980657
 H         -4.5602054341        3.4098624023       -0.2123138879
 H         -3.8647612572        4.0133958568        1.2840957710
 C         -2.4892615704        2.9105401823        0.1032262207
 H         -1.8506147977        2.5672534408        0.9205559278
 H         -2.0961904848        3.8693032402       -0.2421643158
 C         -2.3487909752        1.9228076533       -1.0612065201
 H         -3.0269496598        2.2067218301       -1.8688910657
 H         -1.3213105641        1.9935927778       -1.4302183092
 H         -6.4361407462        1.8164605564        0.4415566428
 H         -5.8883284421        0.3360921135        1.2382264040
 H         -4.9467164499        1.4578575208       -1.4320903161
 H         -5.8062857896       -0.0615919727       -1.1185796538
 O         -3.9444736104       -1.3896542337       -0.2505408075
 C         -2.8615495280       -2.2191206376       -0.0315310998
 O         -3.1690115334       -3.3936430300        0.2600869305
 H          1.9385770287       -1.3289431212       -0.5876738830
 C          1.7826169844       -1.5062035305        0.4592014845
 C          0.6522338597       -2.1594559673        0.9248767940
 C          0.5034494730       -2.3069068559        2.3039561566
 C          1.4541923684       -1.8274785381        3.1841875805
 C          2.5853745698       -1.1873086824        2.7106031115
 C          2.7440504652       -1.0285889230        1.3397707224
 N          3.8941865104       -0.4115778374        0.8248262020
 S          3.8628082354        0.5707541608       -0.5203727961
 O          3.5970762840       -0.1997734323       -1.7084861027
 O          5.1540302242        1.2311180082       -0.4870499387
 C          2.6130644842        1.8175435044       -0.2699062629
 C          2.3993550757        2.3217086206        0.9963066800
 C          1.5188396125        3.3787946549        1.1569198478
 C          0.8810930689        3.9207318804        0.0530968928
 C          1.1003164348        3.3979728886       -1.2110059556
 C          1.9733264052        2.3351783247       -1.3756745208
 H          2.1661849120        1.8937821224       -2.3404373517
 H          0.5968695610        3.8150120531       -2.0691849387
 H          0.2081208825        4.7539854493        0.1804148221
 H          1.3362190552        3.7790010923        2.1415987155
 H          2.9115285132        1.8925081894        1.8420982496
 H          4.5432448647       -0.0640352687        1.5150065124
 H          3.3376234036       -0.8193422109        3.3919115550
 H          1.3151880888       -1.9546203117        4.2470936199
 H         -0.3787464079       -2.8051718863        2.6824019664
 C         -0.4475024600       -2.7077151596        0.0538634256
 H         -0.9185374084       -3.5196041529        0.6311853674
 C         -0.0972708513       -3.3456549853       -1.2870853914
 C          0.6056923499       -2.6713536036       -2.4249822037
 C          1.2682747251       -3.8040088551       -1.6977220982
 H          1.3539278111       -4.7541272900       -2.2042443320
 H          2.1018721486       -3.5749478653       -1.0526944240
 H          0.2302460519       -2.8552939357       -3.4222640959
 H          0.9787979917       -1.6680756037       -2.2947496805
 H         -0.9186144810       -3.9931224913       -1.5875042351
 O         -0.2021482571        0.1798767846       -0.6232810454
