  62
        -98.93872663
 C          2.5224924232       -1.3217730633       -0.1599209705
 C          2.5904556310       -0.3424037165        0.8577907765
 C          3.4343933430        0.8365533506        0.5849434187
 C          4.0791689712        0.9412371563       -0.5912650183
 C          5.0215720485        2.0012117497       -1.1215812983
 C          5.0917716266        3.3814076588       -0.4727191678
 C          3.8195088199        4.2183124326       -0.6018586648
 H          3.9564640502        5.1372045766       -0.0276369192
 H          3.6897103961        4.4973948721       -1.6504308111
 C          2.5305682454        3.5380784963       -0.1458883675
 H          2.3143243450        2.6832343623       -0.7908422402
 H          1.7088810860        4.2476288941       -0.2788243022
 C          2.5108967833        3.0768909428        1.3104641687
 H          1.4866173307        2.7655961331        1.5377357359
 H          2.7572089890        3.9152891438        1.9651744189
 C          3.4428208604        1.8987593543        1.6461267776
 H          4.4567981671        2.2389984427        1.8411313408
 H          3.0724026108        1.4267323495        2.5606885338
 H          5.8938022890        3.9223439225       -0.9821704322
 H          5.3834455737        3.2948673346        0.5697863916
 H          4.7679067942        2.1167992858       -2.1799886871
 H          6.0215589784        1.5545257122       -1.0906043739
 O          3.9921741486       -0.0343299802       -1.5412979673
 C          3.2154062406       -1.1620561217       -1.3632652384
 O          3.2273477871       -1.9461726591       -2.3327438534
 O          1.9906718548       -0.4232778929        1.9642877215
 C          1.6713736935       -2.5803216249       -0.0587653007
 C          0.2280669196       -2.2288437461       -0.3305433328
 C         -0.3795849174       -2.5937590604       -1.5265002947
 C         -1.6827716370       -2.2160395801       -1.7988779227
 C         -2.4024401559       -1.4599930047       -0.8905748711
 C         -1.7999957480       -1.0821938577        0.3018389033
 C         -0.5016874997       -1.4797698208        0.5816832504
 H         -0.0336501920       -1.1631470147        1.5017587481
 N         -2.5146252587       -0.2848572405        1.2204410480
 S         -3.0197919355        1.2129753474        0.6412520453
 O         -2.1580369312        1.6902117197       -0.4168408258
 O         -3.1374952503        2.0597301147        1.8086541673
 C         -4.6480431840        0.8823557999        0.0002436824
 C         -5.5962501122        0.3714416624        0.8649884102
 C         -6.8680174578        0.1068841975        0.3826241883
 C         -7.1691078203        0.3587546666       -0.9478245271
 C         -6.2071297595        0.8754892704       -1.8021438554
 C         -4.9325226315        1.1414107379       -1.3260321356
 H         -4.1499533340        1.5373327194       -1.9536338345
 H         -6.4427244248        1.0712960849       -2.8359007036
 H         -8.1593877462        0.1512751490       -1.3214143625
 H         -7.6189471113       -0.2945968271        1.0437567844
 H         -5.3210614926        0.1946093421        1.8913306916
 H         -2.0132441928       -0.1553149880        2.0890500136
 H         -3.4141263161       -1.1533747391       -1.1013138904
 H         -2.1409309027       -2.5076626856       -2.7316176159
 H          0.1873122592       -3.1584078839       -2.2527339219
 H          2.0159313717       -3.2340409453       -0.8708769602
 C          1.8446794258       -3.3164844303        1.2544796307
 C          1.4561594613       -4.7612593774        1.3303408375
 C          2.9026219265       -4.3708954994        1.3661621063
 H          3.4413998424       -4.4621624297        2.2973237029
 H          3.5067353624       -4.5670726214        0.4921070580
 H          0.9988374860       -5.1243404239        2.2377949625
 H          1.0794280046       -5.2245026167        0.4310031799
 H          1.6693690173       -2.6995225924        2.1254341732
