  62
        -98.94458506
 C         -2.0266599597       -0.3638878199       -0.0699894305
 C         -3.0530390199       -0.7399420198        0.8335073493
 C         -4.2554858099        0.1023342503        0.8358235191
 C         -4.3025897596        1.1811357503        0.0331896690
 C         -5.4811440495        2.1006378304       -0.0992960912
 C         -6.4213322893        1.6411348304       -1.2225533014
 C         -6.7857640195        0.1579886804       -1.1553110515
 H         -7.4760900693       -0.0444864195       -1.9770784816
 H         -5.8881164695       -0.4378488396       -1.3355281713
 C         -7.4257754598       -0.2793437495        0.1696941484
 H         -8.2858665698       -0.9152761794       -0.0502563017
 H         -7.7979593398        0.5935585606        0.7072453483
 C         -6.5011528800       -1.0826290095        1.0863349686
 H         -6.0526305299       -1.9052047596        0.5236886787
 H         -7.1092360302       -1.5230956795        1.8809413885
 C         -5.3747600701       -0.2882954096        1.7595666388
 H         -5.7902268301        0.5913810805        2.2553899687
 H         -4.9239608003       -0.9309641196        2.5213499889
 H         -7.3304589193        2.2437117705       -1.1793788016
 H         -5.9334012991        1.8307812904       -2.1814823313
 H         -6.0175834197        2.1338197704        0.8470307586
 H         -5.1121593394        3.1009455804       -0.3324327612
 O         -3.2854375494        1.5323035202       -0.7925390208
 C         -2.1285201095        0.7697163501       -0.8764517405
 O         -1.2968296093        1.2061309601       -1.6951646904
 H          1.1163291606        0.3615131099       -1.3256438099
 C          1.2381305804        0.3175983299       -0.2550944098
 C          0.3653984502       -0.4440204300        0.5072031100
 C          0.5284534999       -0.4602450100        1.8895585100
 C          1.5339522498        0.2730435400        2.4917443102
 C          2.3946846400        1.0429980599        1.7291956804
 C          2.2372003403        1.0693040999        0.3499072604
 N          3.0994112705        1.8588636698       -0.4323973095
 S          4.7474377104        1.6818606797       -0.2083823692
 O          5.1399301702        2.3327379297        1.0165642209
 O          5.3553296107        2.1857544796       -1.4191567790
 C          4.9974640403       -0.0782244303       -0.0708934991
 C          5.1919173200       -0.6530569003        1.1684461810
 C          5.3174399999       -2.0305918003        1.2545819011
 C          5.2451305501       -2.8044708703        0.1069708011
 C          5.0536089904       -2.2111754604       -1.1316865490
 C          4.9233545605       -0.8352803204       -1.2234791391
 H          4.7803796707       -0.3364766204       -2.1686882591
 H          5.0016345005       -2.8155474904       -2.0230332390
 H          5.3407357400       -3.8765916503        0.1766505311
 H          5.4685836697       -2.4945776503        2.2159103811
 H          5.2492374099       -0.0160656903        2.0354081710
 H          2.8627473207        1.8603532898       -1.4136181095
 H          3.1765966200        1.6321370699        2.1804051105
 H          1.6472410896        0.2501490300        3.5649670803
 H         -0.1541458103       -1.0473081799        2.4877563499
 C         -0.7708131198       -1.2199816899       -0.1113560102
 H         -0.9874937200       -2.0769396299        0.5403845198
 C         -0.4698761395       -1.7332652800       -1.5040777101
 C          0.5137742904       -2.8511930901       -1.6732922699
 C         -0.9469984895       -3.0973388700       -1.8993094402
 H         -1.2962367293       -3.2471405800       -2.9100652003
 H         -1.4898436597       -3.6702823899       -1.1618797503
 H          0.9639050202       -3.2555369601       -0.7795731198
 H          1.1700202206       -2.8353692001       -2.5296998498
 H         -0.4993231893       -0.9625789400       -2.2643410402
 O         -2.9671568602       -1.7367949897        1.5989235294
