  62
        -98.94400426
 C         -1.7595945220       -1.3040185762       -0.2848100998
 C         -2.7954690907       -0.5734810837        0.3385583793
 C         -3.1202830179        0.7350118465       -0.2509291418
 C         -2.4410099367        1.1596175044       -1.3303432019
 C         -2.6328716640        2.4284811341       -2.1233503430
 C         -2.8474330916        3.7306442151       -1.3416409640
 C         -2.0974964619        3.8190489547       -0.0043592339
 H         -1.3533560035        3.0228944133        0.0732376070
 H         -1.5550787800        4.7661752736        0.0368260856
 C         -3.0319081924        3.7641429775        1.2067074059
 H         -2.5076402418        4.1841417871        2.0687909857
 H         -3.9023408611        4.3950519491        1.0104538451
 C         -3.5047688353        2.3671650087        1.6043374268
 H         -4.2216443753        2.4728883808        2.4227212965
 H         -2.6563142765        1.7947370373        1.9912049175
 C         -4.1539650866        1.5422549591        0.4799989672
 H         -4.8332009681        0.8195482908        0.9407083076
 H         -4.7251429251        2.1758994398       -0.1941954435
 H         -2.5243476798        4.5448907340       -1.9928194546
 H         -3.9117455214        3.8770054074       -1.1606053845
 H         -1.7316383636        2.5168649419       -2.7348492527
 H         -3.4751718240        2.2786623353       -2.8058438631
 O         -1.4583812780        0.4152453320       -1.9088863510
 C         -1.0613143306       -0.7982706684       -1.3786185000
 O         -0.0982408915       -1.3272236008       -1.9690966592
 H         -0.1631238710       -0.5318998380        1.5199189101
 C          0.5592540875       -1.3103799896        1.3224918910
 C          0.1522554054       -2.4924698492        0.7169914917
 C          1.1027687635       -3.4805467113        0.4945377428
 C          2.4275691338       -3.2698833936        0.8389342631
 C          2.8371235560       -2.0661846640        1.3832050823
 C          1.8901357979       -1.0771071220        1.6214518812
 N          2.2437970002        0.1878441377        2.1391642303
 S          2.0135326431        1.4923293474        1.1064401293
 O          2.4833137952        2.6446663670        1.8456522185
 O          0.6469245134        1.5339282898        0.6582787788
 C          3.1294232529        1.1657925941       -0.2464391701
 C          4.3805015941        1.7530847417       -0.2221736102
 C          5.2870370538        1.4466110591       -1.2234191296
 C          4.9326164924        0.5517157590       -2.2222195591
 C          3.6753439712       -0.0317159085       -2.2292827690
 C          2.7599044115        0.2736253441       -1.2328629896
 H          1.7746141406       -0.1670767739       -1.2271731595
 H          3.3899494501       -0.7280504385       -3.0015125286
 H          5.6384236621        0.3077449870       -3.0005210186
 H          6.2641785047        1.9021430872       -1.2205497497
 H          4.6086622152        2.4441454418        0.5733608594
 H          3.1846038902        0.2270326561        2.5083316406
 H          3.8758475263       -1.8893316859        1.6186698225
 H          3.1552009223       -4.0461009052        0.6577811039
 H          0.8081850518       -4.4130721210        0.0414785534
 C         -1.2996382648       -2.6167950466        0.3232913814
 H         -1.9007291853       -2.7466954547        1.2358934213
 C         -1.5741275267       -3.7736304868       -0.6141701978
 C         -1.8538811496       -5.1412367558       -0.0679973169
 C         -2.9606859278       -4.3377885541       -0.6797510179
 H         -3.3501001181       -4.6385884041       -1.6406849978
 H         -3.7023255772       -3.9029452721       -0.0255833684
 H         -1.4859984012       -5.9987726470       -0.6108880261
 H         -1.8507255602       -5.2616498150        1.0047953732
 H         -1.0217175363       -3.6935255186       -1.5437297177
 O         -3.4246629619       -0.9976529516        1.3469041394
