  62
        -98.94494860
 C         -2.4524183075       -1.2180046124       -0.1115453350
 C         -3.3321632178       -0.6303804749        0.8361038479
 C         -4.0958251890        0.5385796066        0.3849260207
 C         -3.9323683998        0.9810434840       -0.8747814474
 C         -4.5947073168        2.1979672437       -1.4509302900
 C         -3.7237656437        3.4469405960       -1.2552339141
 C         -3.2129773648        3.6274947454        0.1745176780
 H         -2.5150949620        2.8195128523        0.4088768821
 H         -2.6401284046        4.5572339781        0.1989025166
 C         -4.3152253612        3.6760274604        1.2421632076
 H         -5.2755044459        3.8920224981        0.7725516521
 H         -4.0983284203        4.4958857355        1.9300005434
 C         -4.4375000183        2.4064970379        2.0869871301
 H         -3.4549467283        2.1336932754        2.4804877025
 H         -5.0831628267        2.6276651528        2.9409141953
 C         -5.0267464831        1.1838818594        1.3723736810
 H         -5.2332672561        0.4232578914        2.1307828779
 H         -5.9685699887        1.4563567585        0.8921550930
 H         -4.3050637809        4.3228241640       -1.5492938673
 H         -2.8583788330        3.3745163206       -1.9186835847
 H         -4.7453932154        2.0350955672       -2.5194322233
 H         -5.5625965700        2.3387800226       -0.9738032994
 O         -3.0965245073        0.3851910974       -1.7605605605
 C         -2.3252031120       -0.7120178717       -1.4050324036
 O         -1.5992437021       -1.1242688794       -2.3329820661
 H          0.3542773464       -1.7196152516       -1.3599679269
 C          0.6623120481       -1.6152539075       -0.3304611676
 C         -0.2281684251       -1.9365916463        0.6844598655
 C          0.1736232309       -1.7528256611        2.0029612196
 C          1.4338698580       -1.2612920440        2.2944678888
 C          2.3143261211       -0.9333375245        1.2788500809
 C          1.9169891674       -1.1011689322       -0.0409307049
 N          2.7958949694       -0.7356297083       -1.0822413415
 S          3.2721027329        0.8791959461       -1.0909146182
 O          2.2774889074        1.7286457492       -0.4747805002
 O          3.6116365775        1.1767284602       -2.4655980199
 C          4.7631898977        0.8773984512       -0.1166911303
 C          5.7944385281        0.0463907754       -0.5092177010
 C          6.9634827982        0.0343083006        0.2345851611
 C          7.0820426894        0.8505463829        1.3498541227
 C          6.0389747497        1.6817107398        1.7285615727
 C          4.8661189137        1.6978382972        0.9894372622
 H          4.0255004633        2.3214783377        1.2488936602
 H          6.1326001910        2.3155330638        2.5957162780
 H          7.9926896820        0.8387573810        1.9276346132
 H          7.7766120544       -0.6107473125       -0.0566682042
 H          5.6613494895       -0.5687112812       -1.3834009454
 H          2.4361755064       -0.9825510651       -1.9945023643
 H          3.2935362505       -0.5395817807        1.4977479579
 H          1.7319439078       -1.1261036546        3.3229655693
 H         -0.5208377561       -1.9789153677        2.7992573948
 C         -1.6280321883       -2.4042411500        0.3660472642
 H         -2.0990947802       -2.7174947752        1.3072823652
 C         -1.6444108043       -3.5777162113       -0.5916150882
 C         -1.2656089897       -4.9343482735       -0.0802414776
 C         -2.6918893206       -4.6366301976       -0.4302852903
 H         -3.1117425778       -5.0835431671       -1.3189212334
 H         -3.4019283911       -4.5184773215        0.3751802193
 H         -0.7031378798       -5.5897020526       -0.7272130622
 H         -1.0079954997       -5.0188538401        0.9645595468
 H         -1.3564586268       -3.3200282802       -1.6023237830
 O         -3.4738495452       -1.0703823546        2.0078384184
