  62
        -98.94513579
 C         -1.5381151064       -0.8029721441        0.0115227508
 C         -2.8127228208       -1.4133204200        0.0664064339
 C         -3.9109469783       -0.5612880907        0.5423410856
 C         -3.6480146343        0.7068152485        0.9084646017
 C         -4.6801056923        1.6985864086        1.3599930934
 C         -5.2292543332        2.5070225679        0.1762232261
 C         -5.6632892050        1.6469274574       -1.0106799788
 H         -4.7840849358        1.1607782565       -1.4395839517
 H         -6.0618185500        2.3204952976       -1.7725011781
 C         -6.7146323905        0.5811411740       -0.6713203235
 H         -7.4873287856        0.5926121632       -1.4430236285
 H         -7.1990344052        0.8257966096        0.2747274272
 C         -6.1711233507       -0.8474637064       -0.6070921133
 H         -5.6050036287       -1.0653422125       -1.5163268112
 H         -7.0215890330       -1.5340455028       -0.5796007224
 C         -5.2837672232       -1.1699188021        0.6018780057
 H         -5.1304397750       -2.2530650045        0.6213466946
 H         -5.7959000229       -0.8799003354        1.5217389173
 H         -4.4509675482        3.1931726262       -0.1651863103
 H         -6.0758763636        3.1003329394        0.5264749904
 H         -5.4902293656        1.1708968895        1.8595491339
 H         -4.2120074460        2.3826022133        2.0697593748
 O         -2.4051521405        1.2502868519        0.8649763524
 C         -1.3177587398        0.5157942841        0.4112507393
 O         -0.2390655022        1.1342897412        0.4173141419
 H          2.3536965562       -1.1362288215       -0.7823704429
 C          2.0619192102       -1.3444003071        0.2323187302
 C          0.7417167274       -1.6245623164        0.5451569520
 C          0.4215451264       -1.9354935735        1.8647595145
 C          1.3937043487       -1.9398710469        2.8451849756
 C          2.7056144933       -1.6250195012        2.5351324372
 C          3.0387436847       -1.3300726883        1.2194442206
 N          4.3609415426       -1.0291897819        0.8692888430
 S          4.7075688012       -0.0079951627       -0.4036360651
 O          4.5319408881       -0.7006448524       -1.6560575364
 O          6.0535358220        0.4494088957       -0.1279344006
 C          3.5721876122        1.3622009587       -0.2925567315
 C          3.4982258438        2.0652966254        0.8924246465
 C          2.6341320028        3.1436064452        0.9773783188
 C          1.8653714235        3.5013357874       -0.1182237779
 C          1.9552315221        2.7889695109       -1.3022448466
 C          2.8150687523        1.7074354346       -1.3921589394
 H          2.9090673345        1.1213021169       -2.2931627976
 H          1.3501322528        3.0656653575       -2.1512679776
 H          1.1857495621        4.3357204562       -0.0472889018
 H          2.5558056200        3.6976477992        1.8991184335
 H          4.1117481353        1.7675962462        1.7275140273
 H          4.9976471342       -0.9079260002        1.6422845039
 H          3.4642090770       -1.6140195547        3.3025596435
 H          1.1282528610       -2.1801050158        3.8637898967
 H         -0.6055270607       -2.1678484791        2.1117856842
 C         -0.3537390492       -1.6070943671       -0.4910994737
 H         -0.7258643168       -2.6342569123       -0.6221996268
 C          0.1016016808       -1.0754447847       -1.8340667458
 C          0.7795574987       -1.9800978743       -2.8177195054
 C         -0.6178902326       -1.5043183401       -3.0761060607
 H         -0.7809385957       -0.7762364854       -3.8565782480
 H         -1.4273350656       -2.2106642721       -2.9618867871
 H          0.9191954768       -3.0120666840       -2.5327476530
 H          1.5849822967       -1.5822400465       -3.4173306332
 H          0.4311111705       -0.0434058255       -1.7771114757
 O         -3.0209241557       -2.6136363857       -0.2600489057
