  62
        -98.94091090
 C         -2.6710500120       -1.0881986013       -0.4056294443
 C         -2.1401235836        0.0538233267       -1.0531936665
 C         -2.9487668356        1.2788976504       -0.9583621538
 C         -4.1140742883        1.2548826785       -0.2872794875
 C         -5.0069830115        2.4413849592       -0.0709270773
 C         -4.6600956791        3.1670239869        1.2364620076
 C         -3.1695028240        3.4644413510        1.4023288110
 H         -2.6239405420        2.5230296792        1.5063443003
 H         -3.0485212960        4.0072746778        2.3424404338
 C         -2.5533514119        4.2815766546        0.2582362300
 H         -1.9216980855        5.0619486333        0.6878422518
 H         -3.3418380410        4.7774115535       -0.3093149102
 C         -1.6728029190        3.4731372509       -0.6966417961
 H         -0.9386442636        2.9011078246       -0.1219423144
 H         -1.1190495756        4.1770398361       -1.3239363083
 C         -2.4145691589        2.5108424631       -1.6332953613
 H         -1.6980494190        2.1562973036       -2.3798833685
 H         -3.2144626937        3.0448336490       -2.1501921132
 H         -4.9786318555        2.5428803402        2.0745489958
 H         -5.2247443434        4.1003630790        1.2737788150
 H         -4.9081492775        3.1224754148       -0.9138109685
 H         -6.0385729599        2.0895118588       -0.0177443774
 O         -4.5940584773        0.1388263153        0.3180107165
 C         -3.8813894682       -1.0466205884        0.2920039592
 O         -4.4244834655       -1.9836126595        0.9106521604
 H          0.6247942612       -1.6646637599       -1.0504459944
 C          0.5082214832       -1.8331013123        0.0083016710
 C         -0.7176170302       -2.2454840847        0.5064666214
 C         -0.8542624313       -2.4212068148        1.8804984349
 C          0.2109234081       -2.1885478450        2.7305804800
 C          1.4309163687       -1.7664764360        2.2309971365
 C          1.5728417639       -1.5783856693        0.8631315026
 N          2.8060646814       -1.1359380308        0.3402553570
 S          3.4880297360        0.2122926545        1.1002602135
 O          4.1549028613       -0.2331804788        2.2989665089
 O          2.4927273936        1.2458108791        1.2828232788
 C          4.6962175840        0.7080609700       -0.1114422584
 C          5.9571319226        0.1446078507       -0.0684475474
 C          6.8851489333        0.5071572742       -1.0316532274
 C          6.5379744033        1.4200929498       -2.0163354675
 C          5.2681157105        1.9770088709       -2.0462665356
 C          4.3345800946        1.6179250651       -1.0867321889
 H          3.3380699673        2.0309191087       -1.0685552664
 H          5.0009943211        2.6876925678       -2.8118661106
 H          7.2616475696        1.7018752517       -2.7648079285
 H          7.8738553709        0.0780558850       -1.0114012295
 H          6.1820916865       -0.5539602626        0.7203193133
 H          2.7326521937       -0.9619939544       -0.6542124766
 H          2.2633739512       -1.5589525249        2.8837997682
 H          0.0903721864       -2.3290276123        3.7945290975
 H         -1.8147690607       -2.7230926267        2.2753135206
 C         -1.9245863019       -2.4143373043       -0.3842506095
 H         -2.6024503643       -3.1318614124        0.0962957040
 C         -1.5964592546       -2.9134371012       -1.7757839884
 C         -1.1665929399       -4.3373223156       -1.9564169022
 C         -2.5158713610       -3.8950795122       -2.4352438421
 H         -2.6841077658       -3.8079338271       -3.4981856825
 H         -3.3862567245       -4.2151177424       -1.8811055680
 H         -1.1200513003       -4.9577661647       -1.0741652078
 H         -0.4071862209       -4.5584016589       -2.6905938486
 H         -1.1437759681       -2.1621386449       -2.4097067196
 O         -1.0545174670        0.0655622995       -1.6916694052
