  62
        -98.94001931
 C         -2.5562921803       -1.1767102911        0.3357979015
 C         -2.6076532905       -0.4054644518       -0.8518721890
 C         -3.5528262907        0.7230588280       -0.8417402697
 C         -4.2888410406        0.9639860886        0.2575156802
 C         -5.2460268608        2.1086357286        0.4180391696
 C         -4.5497882609        3.3315781591        1.0315786288
 C         -3.2325926910        3.6998811888        0.3482067684
 H         -2.8477015112        4.5932914892        0.8449862279
 H         -2.5063686409        2.9011376291        0.5184600989
 C         -3.3507436112        3.9631458679       -1.1596275517
 H         -4.3921740212        4.1543153075       -1.4207189618
 H         -2.7847939013        4.8650249378       -1.4020023723
 C         -2.8035275111        2.8421706674       -2.0455406210
 H         -2.7354034012        3.2210902568       -3.0685915113
 H         -1.7911108710        2.5815582178       -1.7257336309
 C         -3.6398283209        1.5570130372       -2.0889390502
 H         -4.6789282709        1.8007375969       -2.3188372803
 H         -3.2449170608        0.9324471968       -2.8954593798
 H         -5.2354844211        4.1794155389        0.9844724583
 H         -4.3423863208        3.1207170998        2.0834808889
 H         -5.6644779109        2.3645207179       -0.5533111206
 H         -6.0536109407        1.7916863289        1.0801009698
 O         -4.2005465904        0.2117084693        1.3850755707
 C         -3.3194255403       -0.8549307705        1.4604301013
 O         -3.3018913701       -1.4257410198        2.5700701417
 O         -1.9068316205       -0.6331121724       -1.8702667089
 C         -1.6013817401       -2.3491862408        0.4790633222
 C         -0.2357014002       -1.9707917309       -0.0424552782
 C          0.4622155899       -2.7045840814       -0.9916132177
 C          1.7223548498       -2.3029281215       -1.4005912081
 C          2.3119727596       -1.1674266611       -0.8777197988
 C          1.6233638096       -0.4254970806        0.0732840808
 C          0.3676027097       -0.8361362105        0.4885169211
 H         -0.1664356704       -0.2580598201        1.2350659308
 N          2.2179546594        0.7389448398        0.6041604600
 S          3.6561413295        0.5152804006        1.4498526800
 O          3.6972007998       -0.7859267790        2.0782506209
 O          3.7607075294        1.6573738412        2.3321601193
 C          4.9174613094        0.6268613500        0.1991595199
 C          5.0162130692        1.7978032596       -0.5267915308
 C          5.9990450791        1.9008946991       -1.4982172010
 C          6.8630361493        0.8392934191       -1.7232756703
 C          6.7526476695       -0.3280841905       -0.9833349796
 C          5.7705602896       -0.4386619200       -0.0112364195
 H          5.6419764098       -1.3279343996        0.5846863911
 H          7.4253529296       -1.1519501605       -1.1596192391
 H          7.6272049892        0.9225938987       -2.4798574404
 H          6.0879557590        2.8068888188       -2.0757767615
 H          4.3280831891        2.5996700096       -0.3171157813
 H          1.5820918094        1.2872587001        1.1661431497
 H          3.2879697596       -0.8458822411       -1.2028654991
 H          2.2497491598       -2.8802877419       -2.1444716577
 H          0.0126530700       -3.5812732318       -1.4275732972
 H         -1.5049580300       -2.5037857901        1.5675522823
 C         -2.1270566199       -3.6571011313       -0.0943070470
 C         -3.5988743899       -3.9089056916       -0.2257960467
 C         -2.7551748100       -3.7409228422       -1.4517462369
 H         -2.5537433299       -4.6133751426       -2.0559820163
 H         -2.8413388702       -2.8268877026       -2.0169642375
 H         -3.9720741397       -4.8930981915        0.0150229339
 H         -4.2713650700       -3.1091536815        0.0494716028
 H         -1.5254146398       -4.5048482110        0.2191678235
