  62
        -98.94116861
 C          1.7059171846        0.1959263777        0.2029159011
 C          2.8419970484        0.9823393983       -0.1088982222
 C          3.9957602513        0.2514878481       -0.6523047147
 C          3.9175531996       -1.0731521152       -0.8680282955
 C          4.9991555622       -1.9454881194       -1.4449753966
 C          6.0330764332       -2.4222130675       -0.4155652971
 C          7.0044420676       -1.3485879061        0.0767220686
 H          7.8018421822       -1.8618731722        0.6179065517
 H          7.4607072689       -0.8522516907       -0.7803672835
 C          6.3733774962       -0.3013616074        1.0049314500
 H          5.4212191308       -0.6781528969        1.3854548314
 H          7.0224215035       -0.1421953096        1.8690650210
 C          6.1407376786        1.0629446167        0.3557253219
 H          7.1008528889        1.5114376573        0.0907358725
 H          5.6563971313        1.7130411586        1.0888093655
 C          5.2577023859        1.0226329231       -0.8981684489
 H          5.8098487264        0.5932195257       -1.7337601544
 H          4.9770862520        2.0474514831       -1.1531348923
 H          6.6143476841       -3.2200591241       -0.8835811757
 H          5.5038470983       -2.8531931529        0.4373887152
 H          4.5001912681       -2.8223268915       -1.8631323247
 H          5.5058331107       -1.4160937736       -2.2523973079
 O          2.7951733196       -1.7888722731       -0.5932023811
 C          1.6830061124       -1.1826184339       -0.0367284653
 O          0.7418554821       -1.9669968819        0.1982349541
 O          2.9173423248        2.2306177897        0.0432080043
 C          0.4321748650        0.7605575014        0.8096793006
 C         -0.4702423858        1.3797932586       -0.2308335204
 C         -0.0525466452        2.4453003094       -1.0208834900
 C         -0.9162006397        3.0115076565       -1.9402107438
 C         -2.2136536296        2.5477198661       -2.0703547030
 C         -2.6413123350        1.4854098098       -1.2832189732
 C         -1.7624014251        0.8993496745       -0.3834777845
 H         -2.0938059646        0.0618466657        0.2111156875
 N         -3.9470620993        0.9877298457       -1.3911922088
 S         -4.7680342713        0.4745127017       -0.0260772176
 O         -6.1660518368        0.5843138281       -0.3841771464
 O         -4.3532591266        1.2023743367        1.1498914037
 C         -4.3485177956       -1.2480741990        0.1260237869
 C         -3.8394900329       -1.7284861112        1.3157006479
 C         -3.5382600009       -3.0769681131        1.4211885747
 C         -3.7525351290       -3.9173575605        0.3401292065
 C         -4.2683763530       -3.4202112654       -0.8472132077
 C         -4.5713278878       -2.0731093204       -0.9584066508
 H         -4.9772582323       -1.6509216237       -1.8625293562
 H         -4.4325045279       -4.0784541263       -1.6851968101
 H         -3.5140517395       -4.9658383422        0.4245941533
 H         -3.1335271886       -3.4644103837        2.3424560736
 H         -3.6842500106       -1.0397653026        2.1317828853
 H         -4.5464903965        1.4944088837       -2.0260222022
 H         -2.8914686978        3.0033616465       -2.7763842301
 H         -0.5805145961        3.8346204494       -2.5530216013
 H          0.9524368043        2.8212931581       -0.9075176154
 H         -0.1013013585       -0.1024283144        1.2311764598
 C          0.6814596028        1.7568292393        1.9276388819
 C         -0.4570428979        2.1173833148        2.8325134439
 C          0.6775798961        1.2850226633        3.3487160009
 H          1.3717184671        1.7342336811        4.0432554355
 H          0.4999303701        0.2342424875        3.5271126915
 H         -0.5396795290        3.1389186553        3.1713615186
 H         -1.4109406165        1.6412200131        2.6559533647
 H          1.3789732678        2.5390309989        1.6592242660
