  62
        -98.94034192
 C         -2.4864773548       -1.1077494960        0.0902016177
 C         -2.7065897634       -0.0424410824       -0.8158805205
 C         -4.1063081702        0.3695152557       -0.9815743651
 C         -5.0791947154       -0.2796085088       -0.3163711026
 C         -6.5534423773        0.0105442678       -0.3980100325
 C         -7.0170921493        1.1440216327        0.5273542125
 C         -6.5995557490        2.5499052464        0.0939917856
 H         -6.8888122909        2.7093611276       -0.9451473370
 H         -7.1692383899        3.2547419958        0.7028201143
 C         -5.1032694270        2.8478057885        0.2651960313
 H         -4.6594617174        2.1125643103        0.9404413385
 H         -4.9777319771        3.8270115715        0.7326036736
 C         -4.3058112639        2.8636047736       -1.0390345591
 H         -3.2548698031        3.0412290433       -0.7962767343
 H         -4.6506127862        3.6859906546       -1.6697856791
 C         -4.3895007263        1.5610674175       -1.8455388731
 H         -5.3690517453        1.4694895283       -2.3141639524
 H         -3.6268616276        1.5921568698       -2.6274966820
 H         -8.1082254854        1.1075794912        0.5652719882
 H         -6.6429753681        0.9469268999        1.5346463194
 H         -6.8244276192        0.2452305783       -1.4276117247
 H         -7.0672252222       -0.9068611632       -0.1029803211
 O         -4.8261530038       -1.3197047368        0.5230656204
 C         -3.5290666370       -1.7420545727        0.7646178993
 O         -3.4365647340       -2.6759261960        1.5877017963
 O         -1.7872520703        0.5350021641       -1.4524253923
 C         -1.0737797618       -1.5944955047        0.3516207441
 C         -0.2001114424       -0.4561314294        0.8209360526
 C         -0.6766465250        0.4005207337        1.8105428536
 C          0.0987913037        1.4442003432        2.2758476998
 C          1.3749683746        1.6458745640        1.7798068689
 C          1.8624039558        0.7945025590        0.7962904308
 C          1.0757881095       -0.2472857328        0.3230901663
 H          1.4819081519       -0.8909093172       -0.4389640096
 N          3.1454843828        0.9829947846        0.2574195277
 S          4.0505386986       -0.3803221180       -0.1584683119
 O          3.6696885665       -0.8157835320       -1.4781641590
 O          3.9641972366       -1.3701706263        0.8916874843
 C          5.6873410810        0.3269629451       -0.2088276060
 C          6.5088228856        0.2158283294        0.8971668724
 C          7.7673450996        0.7953545569        0.8585228957
 C          8.1797284879        1.4748906488       -0.2778417529
 C          7.3444697311        1.5772950584       -1.3805192593
 C          6.0853271668        0.9994198643       -1.3489611713
 H          5.4055244365        1.0453853142       -2.1838416749
 H          7.6696124594        2.1037874491       -2.2633092501
 H          9.1595686269        1.9247904181       -0.3056973261
 H          8.4202302854        0.7145914115        1.7126658919
 H          6.1495092780       -0.3296423855        1.7549793905
 H          3.6964605089        1.6504166843        0.7797164524
 H          1.9832712518        2.4591325566        2.1456335860
 H         -0.2893547601        2.1025661706        3.0387021251
 H         -1.6700095746        0.2364735709        2.2071367813
 H         -1.1467118518       -2.3250544741        1.1717715093
 C         -0.5325034863       -2.2979070174       -0.8757560480
 C          0.4926298828       -3.3815812490       -0.7367857130
 C         -0.9128371695       -3.7246521067       -1.1275489319
 H         -1.1053137396       -4.0360655367       -2.1431877925
 H         -1.5454315988       -4.2043564083       -0.3946262899
 H          1.2716757489       -3.4507892629       -1.4818170280
 H          0.8223139836       -3.6334992392        0.2603695850
 H         -0.4621562299       -1.6392266942       -1.7345880860
