  62
        -98.94488309
 C         -1.9370510828       -0.9446565952       -0.3485951394
 C         -3.0379025908       -1.2292105941        0.4984766210
 C         -4.3290795784       -0.6710591068        0.0847178058
 C         -4.4095207276        0.0588446245       -1.0426350445
 C         -5.6571019067        0.6845779146       -1.6046081749
 C         -6.0032766822        2.0469980579       -0.9881509686
 C         -6.5387490100        1.9968550690        0.4434288039
 H         -6.9425157957        2.9860118819        0.6685941794
 H         -7.3659902944        1.2883051160        0.4960676589
 C         -5.4854105010        1.6416295366        1.5021813381
 H         -4.4858319814        1.7829691929        1.0840772145
 H         -5.5759418132        2.3253709908        2.3492813203
 C         -5.5956408135        0.2200865839        2.0536349432
 H         -4.7814155346        0.0653810542        2.7660124260
 H         -6.5395835183        0.1081209632        2.5916175921
 C         -5.5076229042       -0.8794558720        0.9871569314
 H         -6.4295228655       -0.9159833319        0.4073178293
 H         -5.3734409348       -1.8383103820        1.4937206016
 H         -5.1149710678        2.6821964134       -1.0228810744
 H         -6.7650499102        2.5069503218       -1.6219645580
 H         -6.4985582378        0.0026667062       -1.4787954274
 H         -5.4801914343        0.8256477669       -2.6730771068
 O         -3.3320791202        0.3023388701       -1.8339497801
 C         -2.0695824429       -0.1699067150       -1.5008945658
 O         -1.1791964025        0.1569716554       -2.3090068623
 O         -2.9442500554       -1.9193312026        1.5476364581
 C         -0.5704224373       -1.4703853162        0.0579764174
 C          0.2874034576       -0.2999910072        0.4679575663
 C          0.1237300093        0.2535645084        1.7347616412
 C          0.8738092961        1.3440712631        2.1339345717
 C          1.8006130459        1.9101908197        1.2752576710
 C          1.9628639768        1.3708297880        0.0069761877
 C          1.2190914029        0.2670598500       -0.3876453373
 H          1.3489341111       -0.1327848064       -1.3808045237
 N          2.9160400712        1.9385891702       -0.8679465327
 S          4.5102014474        1.7896007518       -0.3730574505
 O          4.7390754688        2.6676263289        0.7460607849
 O          5.3136234440        2.0295930866       -1.5502018576
 C          4.6471593051        0.0882131671        0.1434631003
 C          4.4034121337       -0.2402307031        1.4617517050
 C          4.4148768087       -1.5757838724        1.8308462834
 C          4.6669348716       -2.5535812012        0.8811623579
 C          4.9147300689       -2.2065492890       -0.4381447628
 C          4.8978126666       -0.8736487739       -0.8147762951
 H          5.0875418136       -0.5614172609       -1.8293833321
 H          5.1156175610       -2.9698507634       -1.1727459328
 H          4.6715359736       -3.5928288721        1.1700791909
 H          4.2227115202       -1.8481849657        2.8561809229
 H          4.2155865262        0.5493265301        2.1704468928
 H          2.8217815710        1.6039871213       -1.8167589839
 H          2.4035955739        2.7544087682        1.5687972189
 H          0.7363385487        1.7592886143        3.1208778585
 H         -0.6073922512       -0.1817142453        2.4017314920
 H         -0.7534516160       -2.0855932167        0.9492432496
 C          0.0607055320       -2.3358512270       -1.0125198037
 C          1.2806625017       -3.1379988594       -0.6725890279
 C         -0.0301277994       -3.8268838658       -0.9015885445
 H         -0.1606545435       -4.4020446128       -1.8059943279
 H         -0.5513560515       -4.2337385673       -0.0476977102
 H          2.0546459254       -3.2409519619       -1.4173876293
 H          1.6523958785       -3.0697985073        0.3385044677
 H         -0.0062921071       -1.9084337666       -2.0056917869
