  62
        -98.94363793
 C         -1.8719516225       -0.7937072627       -0.6092662551
 C         -3.2067251323       -1.2269825196       -0.4285760522
 C         -4.2283566002       -0.1740331711       -0.4515000548
 C         -3.8646667830        1.1049415673       -0.6583939636
 C         -4.7926620187        2.2867306192       -0.7377790790
 C         -5.1668573072        2.8795305912        0.6274755678
 C         -6.1315889854        2.0343502034        1.4601044047
 H         -6.4748854218        2.6600903557        2.2863802991
 H         -7.0053127671        1.7827651600        0.8580333725
 C         -5.5143492471        0.7522234721        2.0361414238
 H         -5.7921905633        0.6548376183        3.0881652875
 H         -4.4247345167        0.8248226911        1.9996382208
 C         -5.9497911484       -0.5331118076        1.3320161248
 H         -5.4278071871       -1.3728314853        1.7983292063
 H         -7.0221353079       -0.6835042444        1.4752232226
 C         -5.6483838503       -0.5639783600       -0.1723176617
 H         -5.7890453393       -1.5872905548       -0.5291491837
 H         -6.3364981511        0.0903719704       -0.7071230655
 H         -5.6333401778        3.8503684732        0.4448959244
 H         -4.2504964826        3.0533475643        1.1964651106
 H         -4.2705083975        3.0536560808       -1.3138793401
 H         -5.6992668312        2.0060198413       -1.2745154704
 O         -2.5712659663        1.4783203555       -0.8444690227
 C         -1.5415022919        0.5478040942       -0.8014270249
 O         -0.4063001796        1.0334147639       -0.9516015865
 H          2.0032927874       -1.8206011806       -0.6798843404
 C          1.6147202141       -1.5339982808        0.2851375013
 C          0.2450441965       -1.4867547205        0.4948518198
 C         -0.2186058380       -1.1225761454        1.7565975181
 C          0.6611460921       -0.7930375241        2.7693152789
 C          2.0278977888       -0.8311184359        2.5529473408
 C          2.5025213765       -1.2046289790        1.3037816799
 N          3.8955221338       -1.2623515615        1.0878355104
 S          4.7809997802        0.1573926264        1.1521575638
 O          6.1632554770       -0.2392298435        1.0096024327
 O          4.4390101585        0.8686921248        2.3565668621
 C          4.2817070567        1.0862812803       -0.2875981923
 C          2.9877016007        1.5625188682       -0.3569404161
 C          2.5776077123        2.2247889617       -1.5031716325
 C          3.4681649896        2.4093222718       -2.5496017264
 C          4.7682004008        1.9335851022       -2.4611901771
 C          5.1788433793        1.2570199480       -1.3241333552
 H          6.1752151702        0.8597963217       -1.2157821484
 H          5.4582804817        2.0817747043       -3.2763991089
 H          3.1439038970        2.9255255786       -3.4397538625
 H          1.5549174796        2.5596133093       -1.5699029389
 H          2.3062193303        1.4075261909        0.4639109919
 H          4.1500674174       -1.7694188706        0.2512612222
 H          2.7277643747       -0.5600630832        3.3259823866
 H          0.2817422894       -0.5066052740        3.7388655562
 H         -1.2857422099       -1.0938673019        1.9315372291
 C         -0.7553513023       -1.8207507741       -0.5838574596
 H         -1.2405253583       -2.7719603104       -0.3175136135
 C         -0.1405282516       -1.9583638888       -1.9613680571
 C          0.4467506977       -3.2650231360       -2.4030791810
 C         -0.8489085270       -2.7899542205       -2.9868678316
 H         -0.8609786962       -2.4475246724       -4.0106533470
 H         -1.7608275513       -3.2816612942       -2.6809933066
 H          0.4151385810       -4.0892473149       -1.7064854128
 H          1.3245696227       -3.2512579928       -3.0317818224
 H          0.3309701849       -1.0419558257       -2.2994525288
 O         -3.5275315975       -2.4338076160       -0.2558556054
