  62
        -98.94360717
 C          1.2759519582       -0.8446420254       -0.1944462550
 C          1.7420015968        0.2823865195       -0.9173666574
 C          2.8041835312        1.0704260424       -0.2799332609
 C          3.2015162515        0.7482587178        0.9640473393
 C          4.3060171557        1.4312647996        1.7161816122
 C          5.6567378128        0.7468554324        1.4624927438
 C          5.9587453621        0.5046550225       -0.0164050840
 H          6.9474722785        0.0446976933       -0.0750227545
 H          5.2433143284       -0.2200420035       -0.4118113114
 C          5.9304926409        1.7696714080       -0.8855567335
 H          6.0116814794        2.6548400875       -0.2536780795
 H          6.8007426381        1.7608589829       -1.5451312951
 C          4.6956486324        1.8980609736       -1.7795062661
 H          4.8778474563        2.7020265893       -2.4974872156
 H          4.5585378554        0.9753755314       -2.3491011149
 C          3.3801901316        2.2194395681       -1.0584779047
 H          3.5148794249        3.0913930972       -0.4146188877
 H          2.6342844185        2.4693489947       -1.8189558623
 H          6.4433927293        1.3640340191        1.9002624224
 H          5.6567480524       -0.2180088388        1.9749254074
 H          4.3518237903        2.4758613055        1.4136279122
 H          4.0765263334        1.3826173977        2.7821229051
 O          2.6613069820       -0.2775347069        1.6681850578
 C          1.6881348113       -1.1008254181        1.1140388746
 O          1.2881900618       -1.9935676092        1.8838955441
 O          1.2861714726        0.6141250204       -2.0449752055
 C          0.1969346908       -1.6949924894       -0.8387591539
 C         -0.9747020879       -1.8500685504        0.0980097492
 C         -1.5789698794       -3.0621199107        0.4033227743
 C         -2.6704477096       -3.1021854343        1.2542896334
 C         -3.1969324226       -1.9434678240        1.7947216531
 C         -2.5967384747       -0.7250939460        1.4967322650
 C         -1.4942331522       -0.6913606807        0.6605766782
 H         -1.0133272181        0.2551016694        0.4643815213
 N         -3.0951237215        0.4801409767        2.0146602503
 S         -3.0340133897        1.8556853172        1.0675531318
 O         -1.7027373226        2.4100773264        1.0653935737
 O         -4.0683973055        2.7102824336        1.6115890169
 C         -3.4988494859        1.3060021663       -0.5656192339
 C         -4.7869616601        0.8353284658       -0.7349264521
 C         -5.1693279210        0.3534901529       -1.9755843717
 C         -4.2593774848        0.3455385879       -3.0221373720
 C         -2.9731770209        0.8278639739       -2.8388619414
 C         -2.5857683343        1.3141751038       -1.5997982073
 H         -1.5881453072        1.6885203710       -1.4288370428
 H         -2.2597598442        0.8231230659       -3.6477192121
 H         -4.5532595382       -0.0363075174       -3.9870455589
 H         -6.1708427937       -0.0172663306       -2.1222374384
 H         -5.4685542614        0.8659200654        0.0995034072
 H         -3.9632230178        0.4028145541        2.5233132469
 H         -4.0520846763       -1.9780582618        2.4519925716
 H         -3.1236770666       -4.0519011421        1.4943495313
 H         -1.1841266502       -3.9778779888       -0.0043659376
 H         -0.1490126942       -1.0838164759       -1.6906814472
 C          0.6906759922       -3.0083666919       -1.4269497180
 C          2.1328211683       -3.2038534036       -1.7856815025
 C          1.5332865830       -3.9718389483       -0.6479921029
 H          1.3585372870       -5.0294157125       -0.7822664729
 H          1.8023149414       -3.6964012138        0.3592612744
 H          2.3689768893       -3.7298364941       -2.6986502304
 H          2.8194100633       -2.4023769446       -1.5528825133
 H         -0.0317988478       -3.4412322795       -2.1118977527
