  62
        -98.94287761
 C         -2.0084036166       -0.3263145760       -0.2068598374
 C         -2.7807408803        0.7225655361        0.3507298513
 C         -4.1529003839        0.3687267346        0.7402379924
 C         -4.5906862095       -0.8948095877        0.6030699879
 C         -5.9523119726       -1.4096835322        0.9829435247
 C         -7.0267504517       -1.1813400288       -0.0892216431
 C         -7.4918548085        0.2669612412       -0.2470615347
 H         -8.3898356847        0.2486073353       -0.8679135018
 H         -7.7784340212        0.6634027101        0.7275095650
 C         -6.4593347768        1.1963357424       -0.9002940867
 H         -5.6980602183        0.5971123167       -1.4052749791
 H         -6.9483655927        1.8024861177       -1.6662912214
 C         -5.7704199698        2.1581147544        0.0677991229
 H         -5.0342969751        2.7393003775       -0.4931777562
 H         -6.5059196809        2.8528840040        0.4792932147
 C         -5.0442803475        1.4698278773        1.2307805656
 H         -4.4145180201        2.2110776906        1.7284682016
 H         -5.7660645825        1.0837443209        1.9499661436
 H         -6.6486555301       -1.5491788351       -1.0460011459
 H         -7.8919432823       -1.7908348690        0.1819486253
 H         -5.8448753620       -2.4852884162        1.1391074916
 H         -6.2692929823       -0.9524651596        1.9207042993
 O         -3.8060662883       -1.8857337758        0.1014770000
 C         -2.5203684899       -1.6214862270       -0.3365376046
 O         -1.9346786032       -2.6134771015       -0.8178887329
 O         -2.3694968136        1.8985250722        0.5323680791
 C         -0.5925025140       -0.1389962946       -0.7252874351
 C          0.4464100567       -0.1831019954        0.3699001979
 C          0.3404266915        0.5966420963        1.5169180649
 C          1.3212211786        0.5483562499        2.4905033304
 C          2.4402033111       -0.2494680185        2.3260439267
 C          2.5634898435       -1.0191455221        1.1766165915
 C          1.5615251621       -0.9942826272        0.2163931576
 H          1.6701958558       -1.6097618339       -0.6637684976
 N          3.7073838040       -1.8123841978        0.9471839975
 S          4.6311632649       -1.4122697339       -0.3937911005
 O          3.8738364491       -1.6460694190       -1.5955347425
 O          5.8585010378       -2.1618381134       -0.2475240834
 C          4.9521448536        0.3309546755       -0.1866303475
 C          6.1127570552        0.7219296757        0.4523805987
 C          6.3243985040        2.0696073173        0.6943798630
 C          5.3692414642        2.9977070052        0.3079569275
 C          4.2081580475        2.5887059014       -0.3296988892
 C          3.9936091457        1.2429174206       -0.5824903008
 H          3.1018761461        0.8940809422       -1.0768782841
 H          3.4627707276        3.3088496239       -0.6268975643
 H          5.5296336486        4.0461931826        0.5036692364
 H          7.2280858679        2.3908861446        1.1867889686
 H          6.8278191025       -0.0339963469        0.7345565137
 H          4.3097950298       -1.8959429716        1.7547075477
 H          3.2119599659       -0.2771831580        3.0805898869
 H          1.2204254207        1.1501038886        3.3808074879
 H         -0.5154739244        1.2422933304        1.6358022629
 H         -0.4056454789       -0.9953535634       -1.3881724001
 C         -0.4197337928        1.1331485866       -1.5360448912
 C          0.6540746801        1.1902630756       -2.5789287054
 C         -0.7873684081        1.1305455676       -2.9875022400
 H         -1.2444832850        2.0148237034       -3.4053703006
 H         -1.1602173701        0.2069289894       -3.4069926455
 H          1.1866293969        2.1183254811       -2.7219921357
 H          1.2592844763        0.3074348460       -2.7312421704
 H         -0.6270267959        2.0314459268       -0.9693613754
