  62
        -98.94651236
 C         -1.1847499612       -1.1405247500        0.5717913278
 C         -1.6564696725       -0.6095138667       -0.6537590550
 C         -2.4561419965        0.6184709370       -0.5438109661
 C         -2.5904259450        1.2279578445        0.6470696059
 C         -3.3538063983        2.4966194747        0.9139105480
 C         -4.8581779702        2.2812046211        1.1315921754
 C         -5.6540379649        1.9249512426       -0.1248936411
 H         -6.7116312204        2.0182992990        0.1298819269
 H         -5.4435843803        2.6550255836       -0.9070141842
 C         -5.3985374576        0.5075510737       -0.6567183606
 H         -6.3524300383        0.0300951661       -0.8919644543
 H         -4.9245384301       -0.0939115138        0.1223942925
 C         -4.5387856759        0.4489977362       -1.9196885219
 H         -5.0683003498        0.9296583207       -2.7452768155
 H         -4.3882301335       -0.6010097209       -2.1826521112
 C         -3.1600200442        1.1066041692       -1.7739025003
 H         -2.5525014683        0.8268906681       -2.6375322316
 H         -3.2686851420        2.1905898325       -1.7530031702
 H         -4.9944878301        1.4995321863        1.8825832160
 H         -5.2644175843        3.2088443853        1.5414342463
 H         -2.9346148938        2.9271168146        1.8257571086
 H         -3.2033812333        3.2002780378        0.0949682784
 O         -2.0059831613        0.7538359565        1.7798032671
 C         -1.3256264679       -0.4506337204        1.7766819016
 O         -0.8833209620       -0.7917006640        2.8944264955
 O         -1.4391538356       -1.1265763786       -1.7780638420
 C         -0.4273032622       -2.4594491599        0.6154964449
 C          0.9484772636       -2.2310951295        0.0396625860
 C          1.3828257751       -2.7484556041       -1.1723683204
 C          2.6444604149       -2.4375658254       -1.6532812738
 C          3.4953922715       -1.6134570455       -0.9393966193
 C          3.0683629812       -1.0946290150        0.2765311906
 C          1.8068921380       -1.4041988345        0.7555956051
 H          1.4702366276       -0.9923453543        1.6989716282
 N          3.9202836778       -0.2308846191        1.0047268292
 S          4.2112615084        1.2429176109        0.2613029014
 O          5.0593598151        1.0258753092       -0.8822999726
 O          4.7376688553        2.1063506422        1.2935555918
 C          2.6060077314        1.8125841217       -0.2674058064
 C          1.8324441394        2.5294057569        0.6233326452
 C          0.5674019327        2.9375773270        0.2344215277
 C          0.0968589795        2.6118950791       -1.0280529509
 C          0.8783663669        1.8759668454       -1.9043258817
 C          2.1469559216        1.4707937136       -1.5234711761
 H          2.7879864619        0.9060001264       -2.1801507121
 H          0.4999252983        1.6110444525       -2.8782605830
 H         -0.8855030368        2.9331566129       -1.3329725359
 H         -0.0484733454        3.5025425347        0.9159384454
 H          2.2378071464        2.7691847401        1.5936849534
 H          3.5859230271       -0.0608950960        1.9436733408
 H          4.4733288159       -1.3487784370       -1.3078281277
 H          2.9686402858       -2.8426029498       -2.5998091638
 H          0.7294387240       -3.3826587880       -1.7478187795
 H         -0.3049751400       -2.6995490163        1.6811380220
 C         -1.2010225930       -3.5768105045       -0.0485896560
 C         -0.8438667177       -4.9997736026        0.2552311157
 C         -2.1213838559       -4.4189012531        0.7807418312
 H         -3.0544930079       -4.7445002952        0.3459554296
 H         -2.1868486491       -4.1987805743        1.8366835328
 H         -0.9001551351       -5.7277486686       -0.5395380879
 H         -0.0405327758       -5.1741803747        0.9551598920
 H         -1.5216190420       -3.3353103260       -1.0540056153
