  62
        -98.93576944
 C         -1.5944674118       -1.3169676724        0.2167306056
 C         -1.6944764073        0.0264664457        0.6543121875
 C         -2.8414850001        0.8116611097        0.1680362690
 C         -3.7345072002        0.2268095205       -0.6520343410
 C         -4.9695187550        0.7725181551       -1.3381493816
 C         -5.5599054634        2.1188025987       -0.9279763152
 C         -6.1834200525        2.1427800647        0.4672853739
 H         -6.4733565961        3.1706385387        0.6958654410
 H         -7.0929367320        1.5369111136        0.4513473536
 C         -5.2990391839        1.6136205667        1.5935438985
 H         -5.8708374709        1.6728260170        2.5237285654
 H         -5.0762969346        0.5586176077        1.4208978009
 C         -3.9888357113        2.3691038501        1.8060515924
 H         -3.5369561169        1.9915296226        2.7274758623
 H         -4.1961079329        3.4316333223        1.9478442347
 C         -2.9464423161        2.2180529975        0.6848163130
 H         -3.1397606315        2.9137370396       -0.1285725940
 H         -1.9668252045        2.4640595746        1.1057884278
 H         -4.8151695378        2.9028477318       -1.0271968557
 H         -6.3529625658        2.3430182881       -1.6464737853
 H         -4.7207850120        0.8131527717       -2.4043316391
 H         -5.7360965848       -0.0017370101       -1.2321063183
 O         -3.5957087181       -1.0697455073       -1.0507108224
 C         -2.5357788155       -1.8721154225       -0.6489717929
 O         -2.5708172603       -3.0188459323       -1.1287953671
 H          2.0816981423       -1.1818225157        1.3158923662
 C          1.9704935375       -1.4022864002        0.2650967497
 C          0.7686607851       -1.8930759980       -0.2212017186
 C          0.6515106498       -2.1554510387       -1.5836106768
 C          1.7209624831       -1.9366804659       -2.4315584059
 C          2.9151793288       -1.4323478531       -1.9448186512
 C          3.0388611640       -1.1579744543       -0.5885269292
 N          4.2377937518       -0.6450741027       -0.0640741045
 S          4.1903034530        0.7044096066        0.9297799414
 O          5.5676366444        1.1399705301        1.0066888571
 O          3.5597826440        0.3711381809        2.1798992315
 C          3.2347469271        1.8980112569        0.0117913799
 C          1.8599728557        1.9329377048        0.1279632903
 C          1.1490885321        2.8219604532       -0.6641689181
 C          1.8145879009        3.6558433046       -1.5482286805
 C          3.1973410858        3.6113953842       -1.6482835181
 C          3.9142064077        2.7210068851       -0.8669421031
 H          4.9897221573        2.6573505095       -0.9072029438
 H          3.7150601310        4.2639948144       -2.3327006498
 H          1.2522738649        4.3443470441       -2.1592008548
 H          0.0738138471        2.8462582066       -0.5790384885
 H          1.3483878845        1.2856921680        0.8231590872
 H          4.9730238047       -0.5417813436       -0.7494041740
 H          3.7459171285       -1.2527392121       -2.6101900829
 H          1.6213091158       -2.1507484838       -3.4849401162
 H         -0.2856906874       -2.5336073468       -1.9643635443
 C         -0.3944448177       -2.1027298678        0.7143615557
 H         -0.1270121043       -1.6336969636        1.6753117196
 C         -0.6904039221       -3.5681904737        0.9963027230
 C         -0.0920811737       -4.7012365989        0.2230855674
 C          0.3686726176       -4.4279306002        1.6212870213
 H          0.0860502400       -5.1116276515        2.4074193080
 H          1.3479666040       -3.9897529572        1.7481945122
 H          0.5811106881       -4.4721063294       -0.5875587829
 H         -0.7165657267       -5.5620630202        0.0392070247
 H         -1.7056065956       -3.7165083471        1.3494601279
 O         -0.8480790179        0.5554923084        1.4248368553
