  62
        -98.94151481
 C         -2.5707074501       -0.0361315282        0.0969704125
 C         -2.5239340159        1.1135139877        0.9237927090
 C         -2.0806361019        2.3563071709        0.2858905705
 C         -1.7328229474        2.3484204703       -1.0133862741
 C         -1.2280020367        3.5248929203       -1.8031001687
 C          0.2784148147        3.7645933075       -1.6300312803
 C          0.6852215711        4.3896501773       -0.2946905201
 H          1.7154276388        4.7344890356       -0.4031116599
 H          0.0652728148        5.2650955000       -0.0961534826
 C          0.6170979196        3.4254046072        0.8978758180
 H          0.6085457054        2.3942760404        0.5347448166
 H          1.5202544539        3.5300299132        1.5050533371
 C         -0.5756953345        3.6415471024        1.8300327603
 H         -0.4813550292        4.6108805804        2.3260419242
 H         -0.5467800104        2.8643938451        2.5987590034
 C         -1.9456403302        3.5791529237        1.1426570331
 H         -2.1086691452        4.4779586214        0.5480089763
 H         -2.7135184212        3.5267530612        1.9189981183
 H          0.5998919782        4.4304124886       -2.4344888364
 H          0.7972244431        2.8101104420       -1.7513358111
 H         -1.4250839172        3.3025124554       -2.8539536848
 H         -1.7795324362        4.4238917927       -1.5259469656
 O         -1.8120105432        1.2324877381       -1.7818402959
 C         -2.1756530456        0.0074579588       -1.2421518444
 O         -2.1232904689       -0.9340655003       -2.0560645453
 O         -2.8284986485        1.0968456021        2.1487303074
 C         -2.8744181351       -1.3681297032        0.7609773786
 C         -1.7700911666       -2.3442805103        0.4328406073
 C         -1.9729519105       -3.6646350166        0.0589967413
 C         -0.8913982228       -4.4829819879       -0.2267812300
 C          0.4023190804       -4.0012653075       -0.1750561798
 C          0.6149900176       -2.6737178614        0.1875538769
 C         -0.4632348075       -1.8778939213        0.5251620947
 H         -0.2862524804       -0.8581684574        0.8376954606
 N          1.9100718209       -2.1253656318        0.1654044406
 S          2.1723863714       -0.4933437238        0.4349141744
 O          1.9481283922       -0.1486938693        1.8242059570
 O          1.4374741162        0.2626126054       -0.5468559387
 C          3.9171225570       -0.4151614758        0.0788751755
 C          4.3191496817       -0.3956514775       -1.2431398415
 C          5.6741013722       -0.3666697911       -1.5320015113
 C          6.6002527666       -0.3582734426       -0.4993214262
 C          6.1823339906       -0.3746909614        0.8226512595
 C          4.8281503784       -0.4044171001        1.1176288650
 H          4.4554726956       -0.4089529591        2.1292866258
 H          6.9042094863       -0.3639953315        1.6232777428
 H          7.6542045099       -0.3356896943       -0.7270370299
 H          6.0019215653       -0.3505124301       -2.5589169978
 H          3.5620543082       -0.3948581673       -2.0104241906
 H          2.6406738713       -2.7243518239        0.5184440718
 H          1.2403846682       -4.6326496006       -0.4246941834
 H         -1.0633270513       -5.5099777726       -0.5116295622
 H         -2.9749447891       -4.0522440399       -0.0255188188
 H         -2.8110928681       -1.1467084372        1.8413691837
 C         -4.2727036519       -1.9154094053        0.5181125244
 C         -5.3823790732       -1.0260644128        0.0446657835
 C         -4.8372635948       -2.0889468271       -0.8588845909
 H         -5.4506567568       -2.9564135348       -1.0544188078
 H         -4.2169894904       -1.7901452796       -1.6887205382
 H         -6.3651854794       -1.1615534066        0.4709708145
 H         -5.1376406282        0.0035556727       -0.1742686777
 H         -4.5476669696       -2.6660953518        1.2529298846
