  62
        -98.94563334
 C         -2.6562911115       -1.1064032883        0.2666342064
 C         -2.5122325286       -0.3104967307       -0.8960739028
 C         -3.1905739145        0.9913457714       -0.8617504349
 C         -3.9301941661        1.3345633214        0.2087254103
 C         -4.7079590436        2.6120330983        0.3753023768
 C         -3.8747887219        3.7861526797        0.9072040531
 C         -2.8741698754        4.3755816210       -0.0878351978
 H         -3.3880814743        4.6186789390       -1.0181957058
 H         -2.5093623613        5.3121532679        0.3382482803
 C         -1.6712970931        3.4687199157       -0.3862922978
 H         -1.5962325590        2.6961199602        0.3833116862
 H         -0.7471083722        4.0500445002       -0.3375121583
 C         -1.7088373540        2.7948146171       -1.7582612036
 H         -0.8241881405        2.1568377028       -1.8477754817
 H         -1.6514121292        3.5557818587       -2.5398471130
 C         -2.9550587546        1.9323273972       -2.0037924138
 H         -3.8256120372        2.5678454720       -2.1650210135
 H         -2.7846718532        1.3322986614       -2.9008112819
 H         -3.3448706643        3.4609280979        1.8055960407
 H         -4.5714379856        4.5750656517        1.1993881038
 H         -5.5021323988        2.4007730133        1.0945758655
 H         -5.1633314636        2.8892160401       -0.5755115968
 O         -4.0733804502        0.5230166669        1.2906794693
 C         -3.4102180836       -0.6932161478        1.3634787169
 O         -3.5698442237       -1.3024752800        2.4411962930
 O         -1.8529493169       -0.6653717117       -1.9069583877
 C         -1.9417027804       -2.4426686347        0.3540459291
 C         -0.4642982139       -2.2498326269        0.1077914641
 C          0.2890379128       -3.0815796901       -0.7099020140
 C          1.6358872456       -2.8333422618       -0.9119911808
 C          2.2609802328       -1.7609008150       -0.3034166646
 C          1.5192617934       -0.9278729042        0.5240632794
 C          0.1732744701       -1.1837599004        0.7304640128
 H         -0.4033795915       -0.5279799248        1.3731507998
 N          2.1478824513        0.1618221369        1.1564293910
 S          2.9709700937        1.2521226739        0.1746971097
 O          2.9725823202        2.4963544936        0.9140165335
 O          2.4177216796        1.2961327252       -1.1583203894
 C          4.6278117874        0.6010418084        0.1333956782
 C          5.2770721344        0.4005923916        1.3359339081
 C          6.5664683876       -0.1066723758        1.3236504205
 C          7.1824471991       -0.4001805122        0.1159727755
 C          6.5188023345       -0.1889376377       -1.0828710002
 C          5.2280058314        0.3171063135       -1.0775055249
 H          4.6696280959        0.4910277663       -1.9836310463
 H          6.9992793735       -0.4171623081       -2.0206995952
 H          8.1857222571       -0.7960103584        0.1091167350
 H          7.0856622997       -0.2722021924        2.2538688135
 H          4.7635477886        0.6448614975        2.2507780800
 H          1.5393008882        0.6612876549        1.7892793597
 H          3.3068050014       -1.5582659668       -0.4668825453
 H          2.2064682782       -3.4835988429       -1.5573407122
 H         -0.1812917996       -3.9177424351       -1.2005740113
 H         -2.0759642292       -2.7961283728        1.3871523232
 C         -2.5858872631       -3.4377644199       -0.5891348503
 C         -2.5838202168       -4.9006989985       -0.2648671476
 C         -3.8544644653       -4.1128626577       -0.1655177001
 H         -4.6244819064       -4.2749241459       -0.9047091272
 H         -4.2364751512       -3.8734859443        0.8164773859
 H         -2.4848330708       -5.6079785961       -1.0744358862
 H         -2.1072906939       -5.2091081618        0.6532949009
 H         -2.4993009728       -3.1395579008       -1.6277829698
