  62
        -98.93819523
 C         -1.9192373449       -0.9670461775        0.3437894569
 C         -2.2585853186        0.2112463733       -0.3588345453
 C         -3.6171492767        0.7514779967       -0.1383067344
 C         -4.4410926295        0.1173233651        0.7157891021
 C         -5.8661073843        0.4552830789        1.0642150740
 C         -6.8570154328        0.0575084176       -0.0420563229
 C         -6.4093485214        0.3998517377       -1.4606614304
 H         -5.4504599009       -0.0819504777       -1.6598078564
 H         -7.1384556930       -0.0310428045       -2.1519168462
 C         -6.3012183316        1.8916579491       -1.7670137785
 H         -6.0566655163        1.9883745609       -2.8279900048
 H         -7.2740953644        2.3619090096       -1.6071631081
 C         -5.2513532568        2.6643558497       -0.9659499673
 H         -5.1229249802        3.6366631360       -1.4508908323
 H         -5.5994613539        2.8681816033        0.0430752940
 C         -3.8722715935        2.0133712431       -0.9273667955
 H         -3.5496813998        1.7989778030       -1.9526236318
 H         -3.1515590204        2.7478721760       -0.5471194183
 H         -7.8156680252        0.5358431992        0.1653691809
 H         -7.0018250140       -1.0244199121        0.0082983452
 H         -6.1094527530       -0.1085997262        1.9674914430
 H         -5.9521613519        1.5115464998        1.3014587514
 O         -4.0650744813       -1.0111575750        1.3827699906
 C         -2.8153393654       -1.5719012090        1.2286752487
 O         -2.6193210250       -2.5933812980        1.9170846786
 H          0.9600328100        0.4246517185       -0.8053162199
 C          1.1499651399        0.2592399226        0.2433079212
 C          0.4637036529       -0.7404932861        0.9161827362
 C          0.7032832212       -0.9127696955        2.2759821964
 C          1.6069236345       -0.1057524540        2.9433689884
 C          2.2848478960        0.8959384770        2.2701435423
 C          2.0437172389        1.0810302464        0.9158413275
 N          2.7344060172        2.1004793188        0.2226066977
 S          4.3885801592        1.8782309494        0.0810952675
 O          4.9918170506        2.0106127816        1.3826765718
 O          4.8287394665        2.8139832898       -0.9283437257
 C          4.5568654492        0.2031367792       -0.5069395740
 C          4.5345020346       -0.0265115144       -1.8680473166
 C          4.5778485255       -1.3324807888       -2.3282431472
 C          4.6275233863       -2.3814398610       -1.4229649351
 C          4.6450647964       -2.1338314471       -0.0591643395
 C          4.6091708006       -0.8297208363        0.4075002663
 H          4.6260393763       -0.5967224050        1.4594354047
 H          4.6830674190       -2.9512861552        0.6427941146
 H          4.6524869887       -3.3981141448       -1.7824577970
 H          4.5681010607       -1.5281521787       -3.3886593560
 H          4.4972553615        0.8179692604       -2.5376410416
 H          2.3399338395        2.2845526052       -0.6895727225
 H          3.0000946833        1.5299548037        2.7690087593
 H          1.7837161617       -0.2549804040        3.9978529194
 H          0.1622914276       -1.6838284487        2.8067103486
 C         -0.5490456133       -1.6155778138        0.2193045523
 H         -0.6178373703       -2.5590980094        0.7763252228
 C         -0.1786305290       -1.9240874938       -1.2172369635
 C          1.0086698554       -2.7976386428       -1.4866028478
 C         -0.3749356896       -3.3118351670       -1.7451875010
 H         -0.6991439383       -3.4315183872       -2.7681328853
 H         -0.7812043252       -4.0513230123       -1.0705812534
 H          1.6396937895       -2.5648876397       -2.3302919528
 H          1.5437720967       -3.1837539792       -0.6324181290
 H         -0.3704306971       -1.1055549909       -1.8987425563
 O         -1.4809403486        0.8026298480       -1.1544986089
