  62
        -98.94059352
 C          1.7426805095        0.3785424002        0.4297057701
 C          2.9222490595        0.5769563905        1.1915245700
 C          4.1660536495        0.7554073903        0.4313071499
 C          4.1261403694        0.7026651198       -0.9123892501
 C          5.3237354294        0.8097983095       -1.8104445402
 C          5.9211818594       -0.5728394906       -2.1070674598
 C          6.1446126394       -1.4300545102       -0.8611577595
 H          5.1761158695       -1.6774807700       -0.4203120094
 H          6.5965396094       -2.3687791303       -1.1889637793
 C          7.0353145295       -0.7794471598        0.2065201502
 H          7.7526586795       -1.5213632897        0.5637436404
 H          7.6073957895        0.0371391801       -0.2354441101
 C          6.2808807396       -0.2631363794        1.4331582701
 H          7.0141509796       -0.0266887391        2.2088549100
 H          5.6344969796       -1.0524774693        1.8254235704
 C          5.4280295295        0.9925237405        1.2122608997
 H          5.1095803596        1.3535977508        2.1946499296
 H          6.0331906995        1.7692468604        0.7401833694
 H          6.8692254793       -0.4343042407       -2.6299920699
 H          5.2404931093       -1.1084718108       -2.7728189096
 H          6.0697819494        1.4457385097       -1.3377916105
 H          5.0098243393        1.2686284992       -2.7494603404
 O          2.9817427194        0.4917049696       -1.6087730200
 C          1.7634707594        0.3104919898       -0.9644240298
 O          0.8118848894        0.1034872895       -1.7387290897
 O          2.9340133696        0.5974573509        2.4515693500
 C          0.4443948595        0.1719612805        1.1885215503
 C         -0.3033110805       -1.0171016197        0.6401357407
 C          0.3467656095       -2.2480498297        0.5805939911
 C         -0.2919033705       -3.3624900699        0.0755551815
 C         -1.6055828105       -3.2826216100       -0.3543943185
 C         -2.2676267905       -2.0648850600       -0.2865898888
 C         -1.6140423805       -0.9408213199        0.1998332708
 H         -2.1404945705       -0.0019441099        0.2148775505
 N         -3.6011442106       -1.9381014802       -0.7081006588
 S         -4.6700126105       -1.1053424799        0.2759201910
 O         -4.3204287004       -1.2436670794        1.6709904910
 O         -5.9782419505       -1.5975821100       -0.1016035488
 C         -4.5370752005        0.5982429600       -0.2217975496
 C         -4.5612962906        0.9022084695       -1.5683163297
 C         -4.5022721407        2.2316472394       -1.9543791701
 C         -4.4272718406        3.2290860997       -0.9938807804
 C         -4.4065981805        2.9072737502        0.3547624297
 C         -4.4627695605        1.5791350403        0.7472559601
 H         -4.4403154004        1.2827454106        1.7839900102
 H         -4.3449198905        3.6838540604        1.1006793294
 H         -4.3808427806        4.2631789996       -1.2973985208
 H         -4.5138379707        2.4863505091       -3.0018645802
 H         -4.6203949407        0.1017017993       -2.2865172094
 H         -4.0142144206       -2.7873827203       -1.0656461885
 H         -2.1100842805       -4.1544362402       -0.7431850981
 H          0.2311744595       -4.3058569799        0.0244391618
 H          1.3699491795       -2.3147594496        0.9261273210
 H          0.7660546696       -0.0809577192        2.2136232403
 C         -0.4175938905        1.4204926005        1.3039831299
 C          0.1879722495        2.7900279005        1.2446655094
 C         -0.6923882405        2.3119023201        0.1311883496
 H         -1.6791425205        2.7406645101        0.0350835696
 H         -0.2377591306        2.0475899498       -0.8101969903
 H         -0.1916562804        3.5462056507        1.9151036892
 H          1.2507462395        2.8604778104        1.0637519494
 H         -1.2290609704        1.2854382107        2.0136337700
