  62
        -98.93453564
 C          1.8925996205        0.9432091600        0.2060877098
 C          2.3449799904       -0.0638662000        1.0926554297
 C          2.6358249301       -1.3822257601        0.5074672698
 C          2.4099620799       -1.5825698601       -0.8016983502
 C          2.5900473095       -2.8481455602       -1.6028881202
 C          3.8512792394       -3.6822405404       -1.3383614703
 C          5.0985750796       -2.8709681506       -0.9576295705
 H          5.9283276695       -3.1750404608       -1.5982133006
 H          4.9214822398       -1.8089224306       -1.1354677205
 C          5.5268388097       -3.0808340007        0.4967772895
 H          5.4520051196       -4.1443104706        0.7333066095
 H          6.5765358998       -2.7955266409        0.5985759494
 C          4.7389968100       -2.2823210905        1.5347859696
 H          4.9885696202       -1.2207009105        1.4549982095
 H          5.0576227201       -2.6115353805        2.5266185495
 C          3.2091714400       -2.4067407602        1.4440542797
 H          2.9093241897       -3.4150383501        1.1683811398
 H          2.7921577701       -2.1782461301        2.4289511898
 H          3.6478856594       -4.4099740303       -0.5541085602
 H          4.0495521292       -4.2490382705       -2.2495692603
 H          1.7042161594       -3.4715822800       -1.4479189100
 H          2.5750528395       -2.5260213502       -2.6470278102
 O          1.9253306499       -0.6005529001       -1.6119199102
 C          1.6404088602        0.6715918600       -1.1388055502
 O          1.1931385103        1.4424606701       -2.0088131402
 H         -0.6634526395        0.8901161405        1.0504176901
 C         -0.8611196393        1.8284038506        0.5502490500
 C          0.1825316708        2.7188415203        0.3269473499
 C         -0.0925185690        3.9173629304       -0.3166797701
 C         -1.3782466490        4.1995524606       -0.7455052700
 C         -2.4054378392        3.2952097508       -0.5541713698
 C         -2.1414527493        2.0960929108        0.0997101402
 N         -3.1670108495        1.1605763310        0.3317984303
 S         -2.7774982998       -0.4816503091        0.2718421404
 O         -2.2099132597       -0.8706997291        1.5398613903
 O         -1.9881384700       -0.7792455493       -0.9026676297
 C         -4.4130862500       -1.1766381988        0.1166595706
 C         -5.1980773198       -1.2752421186        1.2501452207
 C         -6.4846061599       -1.7765815484        1.1325405709
 C         -6.9627178702       -2.1681555383       -0.1093423091
 C         -6.1625843203       -2.0657168085       -1.2373118892
 C         -4.8752135902       -1.5632673888       -1.1269313293
 H         -4.2140166003       -1.4704303389       -1.9738351694
 H         -6.5350376705       -2.3737998685       -2.2009427991
 H         -7.9642900403       -2.5581500681       -0.1984298289
 H         -7.1083526799       -1.8599680182        2.0077832209
 H         -4.7789697097       -0.9667744886        2.1935710406
 H         -3.9966881095        1.3550981511       -0.2130818296
 H         -3.4019323992        3.5083364810       -0.9103204797
 H         -1.5781413589        5.1305724206       -1.2540834300
 H          0.7030680811        4.6178272602       -0.5101385703
 C          1.5549191208        2.3024500501        0.7927666897
 H          1.4993993109        2.1200375502        1.8801278398
 C          2.6225318710        3.3658783799        0.5866118396
 C          4.0576790109        2.9868421496        0.3792398394
 C          3.2755188108        3.5996684397       -0.7414673205
 H          3.5043060410        4.6160289097       -1.0270778806
 H          2.9701453606        2.9714567297       -1.5632498905
 H          4.8201882210        3.5788166495        0.8627708493
 H          4.2918884707        1.9335033196        0.3221764394
 H          2.4444120412        4.2421720200        1.2024286496
 O          2.4930190906        0.1282823400        2.3303800297
