  62
        -98.93919275
 C         -1.8003328695       -0.8595461863       -0.5346144963
 C         -0.8617088993       -1.6002847757       -1.2899803723
 C         -0.2299639174       -2.7335288187       -0.6064431961
 C         -0.5256517783       -2.9772304137        0.6832825583
 C          0.0385003338       -4.0887649493        1.5262342512
 C          1.4116366442       -3.7645216395        2.1306398825
 C          2.5828204683       -3.8304463541        1.1497474021
 H          3.4986086508       -3.8211798036        1.7442808789
 H          2.5517790056       -4.7781647296        0.6101451928
 C          2.6347623850       -2.6655450342        0.1515817703
 H          2.0231824467       -1.8413817234        0.5279246961
 H          3.6594848233       -2.2905101595        0.0841314540
 C          2.1914296380       -3.0272823539       -1.2658664586
 H          2.2642565257       -2.1314549152       -1.8857560396
 H          2.8718358254       -3.7755684289       -1.6792054880
 C          0.7584792235       -3.5659065978       -1.3694665071
 H          0.7223110742       -4.5974006256       -1.0182865302
 H          0.4619504529       -3.5451418643       -2.4215070787
 H          1.3694164800       -2.7668153264        2.5756984345
 H          1.5946653424       -4.4826052078        2.9337664730
 H          0.1040548233       -5.0045726747        0.9374524207
 H         -0.6695493925       -4.2485262417        2.3423195913
 O         -1.4175831052       -2.2309396877        1.3832103160
 C         -2.0700013022       -1.1527367712        0.8033510032
 O         -2.8565923404       -0.5656551159        1.5688620566
 O         -0.5648720978       -1.3263679030       -2.4860887256
 C         -2.4804260156        0.3413225647       -1.1881196638
 C         -2.2933791615        1.5182168093       -0.2606534060
 C         -3.2571918497        2.2857597132        0.3779056156
 C         -2.8866078694        3.2653825051        1.2863432350
 C         -1.5625050478        3.4806923600        1.6130082139
 C         -0.5845401129        2.7246646775        0.9754549814
 C         -0.9572994709        1.8023040325        0.0170625861
 H         -0.1906472634        1.2302861738       -0.4808437227
 N          0.7752466993        2.8796642369        1.2828139363
 S          1.8136158515        1.5602309845        1.2711291792
 O          1.1179728915        0.3071395650        1.4390536457
 O          2.8057758745        1.8798320072        2.2774798991
 C          2.5850820663        1.6715376241       -0.3303198951
 C          3.4994544005        2.6893300856       -0.5252197607
 C          4.1069295255        2.8205099272       -1.7628471500
 C          3.7906357064        1.9369196145       -2.7842968175
 C          2.8732205325        0.9198390115       -2.5736172681
 C          2.2642238855        0.7833445602       -1.3356746131
 H          1.5460649019       -0.0002248542       -1.1479259975
 H          2.6171894236        0.2312719507       -3.3636641051
 H          4.2612207925        2.0385470267       -3.7494164238
 H          4.8225879850        3.6095157751       -1.9284505264
 H          3.7235670493        3.3459085642        0.2988556341
 H          0.9635265758        3.4902598000        2.0641761140
 H         -1.2859581558        4.2106133859        2.3586220210
 H         -3.6538825477        3.8475221949        1.7746255332
 H         -4.3060131773        2.1194037119        0.2136555540
 H         -1.8755032370        0.5459807126       -2.0880917747
 C         -3.8459769938       -0.0856704422       -1.7017768462
 C         -5.0919360824       -0.1649862406       -0.8766050548
 C         -4.9944989197        0.8315251787       -1.9950696679
 H         -5.5703613916        0.6387218060       -2.8883617570
 H         -4.8933832184        1.8790624223       -1.7649273372
 H         -5.7307861516       -1.0257122427       -1.0149526574
 H         -5.0374652055        0.1611053826        0.1493269256
 H         -3.7080536322       -0.8996235062       -2.4107919610
