  62
        -98.94506793
 C         -2.3582783695       -0.4014917809        0.0619709801
 C         -1.4841493597        0.2189286493       -0.8564226199
 C         -1.4365503897        1.6931360193       -0.8487031095
 C         -2.2385237294        2.3608937791        0.0010994108
 C         -2.3842935993        3.8491025791        0.1892046013
 C         -1.2243286191        4.4761421288        0.9734864311
 C          0.1646535908        4.0584309689        0.4997586407
 H          0.8953110610        4.5318501287        1.1622299006
 H          0.2804894608        2.9803678989        0.6262641403
 C          0.5077232904        4.4559875593       -0.9347629193
 H          0.3776993204        5.5348313093       -1.0478764090
 H          1.5674328404        4.2311416193       -1.0814205497
 C         -0.2803533999        3.7453739296       -2.0397037493
 H          0.2737513598        3.8828559798       -2.9726012294
 H         -1.2562936999        4.1999239397       -2.1902675289
 C         -0.4319500499        2.2426316896       -1.8316912397
 H         -0.6760861102        1.7732802598       -2.7918056797
 H          0.5383233201        1.8238335094       -1.5384987300
 H         -1.3209812991        5.5626124289        0.9173580914
 H         -1.3210211788        4.1811764386        2.0215661411
 H         -2.5022117696        4.3389666294       -0.7730383286
 H         -3.3068240792        3.9999341190        0.7551070315
 O         -3.0779161792        1.7174130090        0.8654677409
 C         -3.1375199293        0.3407578489        0.9449360305
 O         -3.9155170391       -0.0981039413        1.8189403506
 H         -0.4583846491       -0.9363517014        1.6586750095
 C         -0.1409791493       -1.8232958312        1.1295977592
 C         -1.0314194696       -2.4827862810        0.2921183293
 C         -0.5980687598       -3.6309001908       -0.3598416612
 C          0.7014631202       -4.0809754709       -0.2008628516
 C          1.6017074305       -3.3842274812        0.5844039483
 C          1.1737767007       -2.2411548913        1.2493844987
 N          2.0535737909       -1.4711045516        2.0396394087
 S          2.3571907209        0.0954802586        1.5204475490
 O          3.2959019111        0.6334936583        2.4823677689
 O          1.1194644709        0.8127508486        1.3666422096
 C          3.1828254805       -0.1097251311       -0.0483986612
 C          2.4469894701       -0.4500268307       -1.1660069711
 C          3.1176948898       -0.6708119105       -2.3601739114
 C          4.4974885498       -0.5528109305       -2.4168861717
 C          5.2207702701       -0.2110407308       -1.2837726318
 C          4.5595265604        0.0078375889       -0.0865875216
 H          5.0773404307        0.2777362086        0.8197425984
 H          6.2938042301       -0.1165928809       -1.3290078720
 H          5.0107655096       -0.7269402103       -3.3494654019
 H          2.5473677996       -0.9347038402       -3.2363001513
 H          1.3718243902       -0.5309357607       -1.1082850809
 H          2.9351743210       -1.9288655117        2.2289815284
 H          2.6247114405       -3.7155834912        0.6817886280
 H          1.0234061301       -4.9740494208       -0.7142904119
 H         -1.2770825000       -4.1699516906       -1.0001965911
 C         -2.4222373796       -1.9161080109        0.1387633698
 H         -2.9984929293       -2.1524118311        1.0458767199
 C         -3.1602097299       -2.4657127005       -1.0659363102
 C         -3.9822556399       -3.7133986305       -0.9505313003
 C         -4.6557994099       -2.3826541205       -1.0938366598
 H         -5.1425308402       -2.1455150202       -2.0279390296
 H         -5.1412316797       -1.9545244107       -0.2285677695
 H         -4.0116795702       -4.3917396903       -1.7899225305
 H         -4.0238752797       -4.1985315808        0.0129798696
 H         -2.6315146401       -2.2816859003       -1.9943298303
 O         -0.7654179000       -0.4319200905       -1.6617163703
