  62
        -98.94352064
 C         -1.7680054178       -1.0351414846       -0.5716594606
 C         -1.9316936790       -0.0602774618        0.4419656715
 C         -3.3113691485        0.1528010244        0.9038099669
 C         -4.3059966383       -0.5834015228        0.3755499404
 C         -5.7596705674       -0.4309961041        0.7164705831
 C         -6.4492053388        0.5666688770       -0.2248142325
 C         -5.6976294196        1.8886172857       -0.3812838791
 H         -4.7471111436        1.7000424288       -0.8854451677
 H         -6.2916011153        2.5235192468       -1.0423112815
 C         -5.4333713596        2.6285923319        0.9375201365
 H         -5.6709983931        3.6854959989        0.7993448284
 H         -6.0960867742        2.2472866957        1.7152291020
 C         -3.9852607262        2.5568881561        1.4256389063
 H         -3.3114068934        2.8477614032        0.6161079998
 H         -3.8623141539        3.2843432484        2.2322972922
 C         -3.5302739964        1.1946667758        1.9644717866
 H         -4.2399552449        0.8394857835        2.7144223779
 H         -2.5592610346        1.3347868781        2.4483794893
 H         -6.5401314208        0.1056918845       -1.2111166137
 H         -7.4547551776        0.7596872038        0.1535140192
 H         -6.2411936111       -1.4051018047        0.6148680499
 H         -5.8525233683       -0.0970346479        1.7480543489
 O         -4.1035927208       -1.5313022564       -0.5758586109
 C         -2.8355442433       -1.7757709014       -1.0774324837
 O         -2.7889750434       -2.6669327971       -1.9501934992
 O         -0.9799012907        0.5975589408        0.9353968539
 C         -0.3837227652       -1.3143312718       -1.1292175295
 C          0.5382719438       -1.7466391722       -0.0152783324
 C          0.1309460443       -2.7710029569        0.8361097547
 C          0.9383591458       -3.1849108114        1.8770906073
 C          2.1691287215       -2.5889364508        2.0911854363
 C          2.5881079942       -1.5700364515        1.2443567739
 C          1.7764354763       -1.1622077646        0.1936994486
 H          2.1225083116       -0.3813004589       -0.4605595131
 N          3.8070638398       -0.9218963587        1.4646685791
 S          4.6605768402       -0.1613095976        0.2547281422
 O          4.6838094916       -0.9422150135       -0.9604661592
 O          5.9514543841        0.1108714790        0.8504574583
 C          3.8030493377        1.3746646985       -0.0208203364
 C          3.7106429042        1.8622094720       -1.3095126729
 C          3.0551247489        3.0631977699       -1.5280827399
 C          2.5082257492        3.7539963445       -0.4578614959
 C          2.6162548285        3.2548144338        0.8309155570
 C          3.2717095532        2.0551112662        1.0560758449
 H          3.3636671167        1.6369676455        2.0444462409
 H          2.1849192811        3.7923993125        1.6598849456
 H          1.9919113058        4.6853771631       -0.6298263037
 H          2.9693737933        3.4532990577       -2.5299603223
 H          4.1418632344        1.2853113753       -2.1126317752
 H          4.3919958971       -1.3015572513        2.1926278458
 H          2.7970081010       -2.9059270349        2.9097675742
 H          0.6082091311       -3.9789247211        2.5301442096
 H         -0.8328587797       -3.2341560699        0.6715028946
 H         -0.4980235317       -2.1591162893       -1.8243601400
 C          0.1168525554       -0.1106309583       -1.9003666834
 C          1.0959700498       -0.2853542134       -3.0205439386
 C         -0.3272702587        0.0766612874       -3.3186935814
 H         -0.5437693620        1.0762139904       -3.6642337022
 H         -0.9723666785       -0.6807124505       -3.7403984794
 H          1.8568951521        0.4671493515       -3.1604889375
 H          1.4269824539       -1.2882055598       -3.2451467114
 H          0.2015760480        0.7756157008       -1.2812920586
