  62
        -98.94340688
 C         -2.2857685659       -0.6038909210        0.0565073277
 C         -3.1762997748       -0.2042269001        1.0896220444
 C         -4.1093652170        0.8823380513        0.7700710742
 C         -4.0639154935        1.4456349301       -0.4505200844
 C         -4.9876520967        2.5244623596       -0.9346346574
 C         -6.2231661960        1.9289343104       -1.6242115676
 C         -6.9096970652        0.8267904705       -0.8173683008
 H         -6.2390491593       -0.0325958823       -0.7452940918
 H         -7.7841837194        0.5042514264       -1.3866617191
 C         -7.3448197567        1.2491721010        0.5928975534
 H         -8.3589027101        0.8846470304        0.7698119637
 H         -7.3755474404        2.3371840758        0.6608206944
 C         -6.4700193968        0.6957557466        1.7194022741
 H         -6.3598994516       -0.3850516043        1.6001740493
 H         -6.9865588022        0.8691279398        2.6671652708
 C         -5.0706673856        1.3120003369        1.8422904364
 H         -4.6382790128        0.9697506796        2.7869116990
 H         -5.1494759440        2.4005090842        1.8747919821
 H         -5.9148505345        1.5085399970       -2.5843188380
 H         -6.9321777770        2.7356751033       -1.8187669282
 H         -5.2911976911        3.1404655307       -0.0904157735
 H         -4.4466999613        3.1454193266       -1.6506848927
 O         -3.1879653140        1.0535266656       -1.4077611454
 C         -2.2868991744        0.0209797516       -1.1903596251
 O         -1.5665802427       -0.2162881377       -2.1824244908
 H          0.3947380290       -0.4068448418       -1.2041774886
 C          0.8130950863       -0.6018077547       -0.2276690127
 C          0.0471988939       -1.2667658463        0.7194069093
 C          0.5999775301       -1.5029102661        1.9726415225
 C          1.8854168813       -1.0827387321        2.2666207417
 C          2.6433288057       -0.4163482626        1.3206560581
 C          2.0991776830       -0.1723830543        0.0664336580
 N          2.8519788995        0.5254275470       -0.8963018269
 S          4.3776082478       -0.0686974074       -1.2729684511
 O          4.6596333963        0.4166845652       -2.6061728048
 O          4.4505333984       -1.4989903713       -1.0808524431
 C          5.4537219459        0.7550212271       -0.1175665081
 C          5.4574050791        2.1361118986       -0.1017911711
 C          6.2931852254        2.7926317253        0.7873869127
 C          7.1087956187        2.0614091224        1.6383690927
 C          7.0967133502        0.6753679902        1.6071379836
 C          6.2619177260        0.0123960147        0.7208938136
 H          6.2139436866       -1.0633797492        0.6645740629
 H          7.7320186545        0.1089236065        2.2689317533
 H          7.7578301150        2.5753038615        2.3297332299
 H          6.3055983360        3.8703722294        0.8144050272
 H          4.8113396302        2.6658546404       -0.7820127668
 H          2.3315672626        0.7150302515       -1.7413960954
 H          3.6438349772       -0.0839001505        1.5443596026
 H          2.3014086763       -1.2737710082        3.2439784000
 H          0.0103160092       -2.0116730064        2.7212323153
 C         -1.3441249956       -1.7506782622        0.3847343707
 H         -1.7621395039       -2.2090445907        1.2911657619
 C         -1.2878810844       -2.8082065941       -0.7014784969
 C         -0.8489533411       -4.1951332731       -0.3437769068
 C         -2.2825264245       -3.9281140814       -0.6900910412
 H         -2.6638472837       -4.2874585452       -1.6341273859
 H         -3.0102881978       -3.9416245081        0.1082264680
 H         -0.6055441384       -4.3914919750        0.6893473791
 H         -0.2398561568       -4.7395140555       -1.0490885399
 H         -0.9893411408       -2.4196838147       -1.6667113821
 O         -3.1919486537       -0.7418271518        2.2286449083
