  62
        -98.93223118
 C          2.8393743475        0.2477999584       -0.1978700342
 C          2.1355991318       -0.6069871179       -1.0790398308
 C          2.0886133505       -2.0351255563       -0.7130502765
 C          2.7020300897       -2.4578656682        0.4043239062
 C          2.8295901274       -3.8595816441        0.9482887906
 C          1.6059087430       -4.7792118148        0.8631705094
 C          0.2542006922       -4.0819768018        1.0748312749
 H         -0.3122005810       -4.6265026714        1.8329343306
 H          0.4027478735       -3.0672574330        1.4507499689
 C         -0.5964934839       -4.0212374206       -0.1951913390
 H         -0.5437896457       -4.9852193520       -0.7066163663
 H         -1.6367268890       -3.8543621574        0.0954450814
 C         -0.2139809934       -2.9079188087       -1.1682492726
 H         -0.4301739949       -1.9404986549       -0.7040134844
 H         -0.8474222820       -2.9984752367       -2.0547552424
 C          1.2586894163       -2.9032246427       -1.6148607041
 H          1.3117817020       -2.4450884859       -2.6062008209
 H          1.6542474907       -3.9137943537       -1.6790877916
 H          1.7410010153       -5.5485112682        1.6255872078
 H          1.5973100004       -5.2894907767       -0.0988800188
 H          3.6727480594       -4.3410042489        0.4432691306
 H          3.1150589253       -3.7301679177        1.9952943342
 O          3.3788132583       -1.6009736910        1.2223125824
 C          3.4389294790       -0.2454530493        0.9634232950
 O          4.0611907811        0.4115620034        1.8226991346
 O          1.5707466001       -0.2233986192       -2.1374992039
 C          2.9214826137        1.7576062859       -0.3839701481
 C          1.6728086970        2.3562449581        0.2123480427
 C          1.7158280372        3.2052985210        1.3106426293
 C          0.5449370968        3.6473323652        1.9049628683
 C         -0.6883958882        3.2391457603        1.4281822916
 C         -0.7370982709        2.3960012278        0.3264476729
 C          0.4321775575        1.9775846899       -0.2836453024
 H          0.3877213826        1.3170475803       -1.1373916733
 N         -1.9922892181        1.9102859166       -0.1330145071
 S         -2.5366805789        0.6803223331        0.9031134411
 O         -2.9159990419        1.2931946143        2.1513738731
 O         -1.5492552423       -0.3740062998        0.9880209775
 C         -3.9872319367        0.1093702684        0.0396560017
 C         -3.8976468259       -1.0063237936       -0.7698918474
 C         -5.0223450390       -1.4202013729       -1.4664944789
 C         -6.2081140542       -0.7115749664       -1.3456141108
 C         -6.2811495080        0.4082464429       -0.5302711207
 C         -5.1610858386        0.8263193608        0.1701529166
 H         -5.1705011530        1.6847454522        0.8208999276
 H         -7.2054263487        0.9554126713       -0.4386299660
 H         -7.0811365689       -1.0358039508       -1.8896152128
 H         -4.9675568653       -2.2911657002       -2.0996189000
 H         -2.9563616055       -1.5297531919       -0.8306638779
 H         -1.8822088997        1.4944566295       -1.0515702186
 H         -1.6056406833        3.5378164114        1.9087222145
 H          0.5947157122        4.3024933353        2.7616390679
 H          2.6742366791        3.4944418410        1.7172553837
 H          3.7758242853        2.0787305825        0.2306292453
 C          3.1873297362        2.1746312781       -1.8248278442
 C          2.3369831474        3.1701553524       -2.5533137485
 C          3.7148390070        3.5500375353       -2.1091641123
 H          4.4896820803        3.6645967610       -2.8518818718
 H          3.8011284660        4.2279089827       -1.2730406474
 H          2.1581415035        3.0017949310       -3.6044378226
 H          1.4983709091        3.6054453679       -2.0320869405
 H          3.5950332726        1.3677379282       -2.4224521328
