  62
        -98.94374763
 C         -1.4778675854       -1.2603414993        0.7123158175
 C         -2.5321077493       -1.1742275120       -0.2289940518
 C         -3.4210934094       -0.0089628176       -0.0867437625
 C         -3.1454222925        0.9294361149        0.8366131491
 C         -3.9322736495        2.1917650265        1.0391004861
 C         -3.4050912226        3.3394665898        0.1658290930
 C         -3.2078936496        2.9631833933       -1.3022806953
 H         -2.8507200289        3.8544213553       -1.8229557881
 H         -2.4217410690        2.2082958175       -1.3790556015
 C         -4.4686100218        2.4320098735       -1.9971204047
 H         -5.3538847848        2.7004220217       -1.4194268621
 H         -4.5614751540        2.9114613040       -2.9738731734
 C         -4.4587683617        0.9216834991       -2.2376422554
 H         -3.5300755438        0.6350485755       -2.7375530418
 H         -5.2820075936        0.6787277882       -2.9148160995
 C         -4.6240654931        0.0494107251       -0.9870672947
 H         -5.5027603497        0.3765696802       -0.4268939121
 H         -4.7946762267       -0.9774468492       -1.3235851241
 H         -4.1058483022        4.1734141316        0.2355759776
 H         -2.4447278384        3.6717792084        0.5657840130
 H         -4.9779521063        1.9992467928        0.8055940105
 H         -3.8533244696        2.4799574213        2.0886558056
 O         -2.0806172775        0.8488297257        1.6745358359
 C         -1.2371360985       -0.2465544299        1.6456296083
 O         -0.3201165531       -0.2110235340        2.4894354610
 H          1.9676453597       -1.4973539994        1.2970057133
 C          1.8269092951       -1.6314102268        0.2325922571
 C          0.6152135405       -2.1217926920       -0.2345575549
 C          0.4333070046       -2.2519411322       -1.6072033278
 C          1.4454428714       -1.9038933625       -2.4841408442
 C          2.6543487467       -1.4183401432       -2.0149035931
 C          2.8400039445       -1.2767989532       -0.6469062966
 N          4.0613314779       -0.7483610295       -0.1654459467
 S          4.2849722654        0.8873413557       -0.4555890080
 O          4.3062159846        1.1037154043       -1.8791382070
 O          5.4793722471        1.2551998301        0.2692709925
 C          2.8592975964        1.6752214622        0.2691187516
 C          2.9387730571        2.1401102974        1.5663768220
 C          1.8086958084        2.6825278731        2.1551134379
 C          0.6213994805        2.7403877663        1.4431873199
 C          0.5578702705        2.2661194766        0.1430118165
 C          1.6841275214        1.7238932924       -0.4530723246
 H          1.6674705194        1.3431478242       -1.4619121786
 H         -0.3701967444        2.3042610060       -0.4053901364
 H         -0.2641567984        3.1425025563        1.9096185499
 H          1.8509274395        3.0469503442        3.1688843685
 H          3.8820983887        2.0755724728        2.0851465788
 H          4.1966832205       -0.9170480461        0.8224297553
 H          3.4443520991       -1.1224657548       -2.6857694519
 H          1.2909814909       -2.0082738946       -3.5475577245
 H         -0.5172627079       -2.5996679060       -1.9809064838
 C         -0.4884877806       -2.4166938683        0.7509686111
 H         -0.0481951154       -2.3951989537        1.7569704835
 C         -1.1182391587       -3.7768953587        0.5385702850
 C         -0.3570918733       -4.9952577225        0.9638173592
 C         -1.5711506281       -4.5644192926        1.7295179592
 H         -2.4723188005       -5.1528772760        1.6446989518
 H         -1.4287653303       -4.1246918865        2.7062305527
 H          0.6096506724       -4.8470939935        1.4214314724
 H         -0.4216794957       -5.8822922151        0.3527036832
 H         -1.7219578607       -3.8465516673       -0.3554811313
 O         -2.7483154253       -2.0138005568       -1.1414552700
