  62
        -98.94030634
 C         -2.2324062001       -1.0549620902       -0.4832744295
 C         -3.4065740201       -0.6918059205        0.2270605506
 C         -4.0255574804        0.5839109094       -0.1434765091
 C         -3.4725262606        1.3322328297       -1.1146397090
 C         -3.9905687809        2.6520569597       -1.6192158787
 C         -3.5572259811        3.8569419296       -0.7728939186
 C         -4.2492900410        3.9806484492        0.5852766515
 H         -4.0220091911        4.9766025692        0.9704111117
 H         -5.3293883210        3.9228302191        0.4474307416
 C         -3.8034723607        2.9382651491        1.6203715713
 H         -2.8610304006        2.4864164694        1.3003665111
 H         -3.6115140607        3.4324474390        2.5754536914
 C         -4.8217365205        1.8282648089        1.8812127512
 H         -4.3867554403        1.1268017889        2.5974949310
 H         -5.7218587905        2.2547725187        2.3292769313
 C         -5.2265874804        1.0371701491        0.6308505811
 H         -5.7702139402        0.1449544889        0.9506699710
 H         -5.8798435406        1.6386644890       -0.0007197788
 H         -2.4748940910        3.8096687298       -0.6289012487
 H         -3.7764521313        4.7569718097       -1.3521327884
 H         -3.5900273410        2.7772054399       -2.6274957288
 H         -5.0789575609        2.6193235095       -1.6783425187
 O         -2.3562273806        0.9450285200       -1.7857786792
 C         -1.6979732604       -0.2420968899       -1.4840032094
 O         -0.6923455204       -0.4415439996       -2.1925313596
 O         -3.9217367299       -1.4112743308        1.1243492305
 C         -1.5715921998       -2.3628313501       -0.0779605198
 C         -0.4432228098       -2.0816400801        0.8862710401
 C         -0.6231478497       -2.3139920504        2.2461184101
 C          0.3878467404       -2.0394822703        3.1487618001
 C          1.5946614102       -1.5261162900        2.7116051701
 C          1.7854643201       -1.2889485498        1.3539839101
 C          0.7704830701       -1.5672117298        0.4494673701
 H          0.9235906699       -1.3479072396       -0.5956573699
 N          3.0188632899       -0.7993136194        0.8918298301
 S          3.0409580796        0.2719595408       -0.4152741097
 O          2.0508796695        1.3082724406       -0.2216835095
 O          2.9819002197       -0.4853093290       -1.6382535699
 C          4.6832182595        0.9447316211       -0.2229909198
 C          4.8543688993        2.1747190610        0.3829623505
 C          6.1393862393        2.6670376212        0.5513012304
 C          7.2260821194        1.9233052415        0.1168922002
 C          7.0390177796        0.6902112316       -0.4902157600
 C          5.7569671496        0.1937941013       -0.6634979500
 H          5.5604853498       -0.7531284586       -1.1385061701
 H          7.8857299896        0.1156204018       -0.8294314202
 H          8.2247448993        2.3082835817        0.2497614902
 H          6.2871581991        3.6268952211        1.0193935106
 H          3.9790397793        2.7200970508        0.6977727906
 H          3.6069136699       -0.4631813295        1.6430699901
 H          2.3858891202       -1.3090260300        3.4131827900
 H          0.2332121405       -2.2217527706        4.2014116500
 H         -1.5737523896       -2.6948838506        2.5903655901
 H         -2.3481127997       -2.9109489504        0.4741056501
 C         -1.1257270498       -3.2187863098       -1.2445967700
 C         -0.9284062595       -4.6882410298       -1.0264696603
 C         -2.0888724196       -4.2001358599       -1.8394029901
 H         -2.0735521997       -4.3506163197       -2.9083907201
 H         -3.0762505896       -4.2564934702       -1.4045797700
 H         -0.1124029494       -5.1773891896       -1.5357549205
 H         -1.1301016893       -5.0777587901       -0.0400268304
 H         -0.4507377499       -2.7144193796       -1.9237600700
