  62
        -98.94110108
 C          2.0490426033        0.7565606446       -0.4042031320
 C          3.1963004275        1.2904369088        0.2399999404
 C          4.4638113953        0.5951575793       -0.0059615097
 C          4.4831152685       -0.4942254863       -0.7944368276
 C          5.6983915585       -1.3021043276       -1.1608754055
 C          6.0868197986       -2.3551722668       -0.1141039933
 C          6.7049789480       -1.7995537101        1.1695612261
 H          7.1270336452       -2.6466267849        1.7140460304
 H          7.5296965874       -1.1329479985        0.9152511697
 C          5.7131615187       -1.0691195835        2.0857276610
 H          4.6920910913       -1.3363573034        1.8032730987
 H          5.8566636598       -1.4021005383        3.1161644646
 C          5.8469206284        0.4537338206        2.0791975468
 H          6.8199526488        0.7377641088        2.4861189683
 H          5.0747971754        0.8683141374        2.7321553232
 C          5.6906951214        1.0959696333        0.6946352852
 H          6.5773710122        0.9063772372        0.0899087064
 H          5.5813916858        2.1750620692        0.8281411165
 H          6.8123571685       -3.0256166016       -0.5806618881
 H          5.2010461800       -2.9451615777        0.1330434118
 H          5.4596173203       -1.8167894741       -2.0941795284
 H          6.5424481210       -0.6348094620       -1.3381786458
 O          3.3620443904       -0.9876021227       -1.3802605090
 C          2.1170117774       -0.3947788127       -1.1911815001
 O          1.1935339037       -0.9872315417       -1.7786673175
 O          3.1616814585        2.3049057465        0.9854634451
 C          0.7249880097        1.4559537017       -0.1468962073
 C         -0.3161312407        0.4557047050        0.2835060225
 C         -0.2896640138       -0.0355284902        1.5852312932
 C         -1.2123207742       -0.9750517007        2.0060922420
 C         -2.1775867274       -1.4486037021        1.1353229960
 C         -2.2086912705       -0.9683541613       -0.1671571742
 C         -1.2936124116       -0.0097216294       -0.5819403926
 H         -1.3160682184        0.3422226820       -1.6013766725
 N         -3.1783128304       -1.4549836492       -1.0602761627
 S         -4.7692921700       -1.5044361108       -0.5530472457
 O         -4.9700344060       -2.6331553184        0.3210634082
 O         -5.5570906494       -1.4933076108       -1.7653607146
 C         -4.9995477781        0.0137876418        0.3548362596
 C         -4.9588697380        1.2005452377       -0.3503998542
 C         -5.0828907474        2.3952747050        0.3392323508
 C         -5.2395791474        2.3831506325        1.7170797310
 C         -5.2803905567        1.1836952335        2.4102525223
 C         -5.1574850907       -0.0148367764        1.7251345906
 H         -5.1862868461       -0.9688903408        2.2252701675
 H         -5.4042700050        1.1776559940        3.4811638131
 H         -5.3318265349        3.3149063091        2.2524787823
 H         -5.0541469679        3.3298901431       -0.1976893259
 H         -4.8441943588        1.1708984373       -1.4221039397
 H         -3.0952148927       -1.0848198006       -1.9950707278
 H         -2.8948449305       -2.1940919518        1.4383283281
 H         -1.1775235928       -1.3475945613        3.0186338569
 H          0.4723550985        0.3234369196        2.2633538662
 H          0.9346533452        2.1174950914        0.7092713208
 C          0.2508828710        2.3570446242       -1.2775747375
 C          1.2338039612        3.1613879297       -2.0732503341
 C          0.4735232158        2.0482028104       -2.7266039450
 H         -0.3068975728        2.3064807736       -3.4281249812
 H          0.9993831612        1.1405641461       -2.9777399426
 H          0.9820552304        4.1793670212       -2.3295532084
 H          2.2831459597        3.0086954198       -1.8666686562
 H         -0.6841000989        2.8495937269       -1.0273614177
