  62
        -98.94526313
 C         -1.4900761595       -0.7437602081       -0.5315105790
 C         -2.6537687217       -1.0588899855        0.2182278078
 C         -3.4493803301        0.0729223877        0.7072641109
 C         -3.0264409115        1.3251871966        0.4573175130
 C         -3.7524829109        2.5745535110        0.8631914458
 C         -4.7154346416        3.0427495593       -0.2368636710
 C         -5.6208122628        1.9351966995       -0.7758699290
 H         -6.2762355764        2.3862513528       -1.5239512159
 H         -5.0065079530        1.1932372739       -1.2908983486
 C         -6.4708033247        1.2341019789        0.2929177575
 H         -7.4909737974        1.1314381180       -0.0828252811
 H         -6.5170937250        1.8496769065        1.1919638724
 C         -5.9901534406       -0.1697207115        0.6653764054
 H         -6.7746386624       -0.6524441390        1.2542234126
 H         -5.8509703590       -0.7620969639       -0.2423683095
 C         -4.6963432807       -0.2371958566        1.4869601748
 H         -4.7779939794        0.4167990585        2.3578835431
 H         -4.5794597595       -1.2658907642        1.8404925288
 H         -4.1256499371        3.4380814764       -1.0670302775
 H         -5.3268240235        3.8540336859        0.1624922458
 H         -4.2999726747        2.3852047696        1.7847034000
 H         -3.0124415382        3.3557068599        1.0467295604
 O         -1.9006513675        1.5927748543       -0.2465758306
 C         -1.1039607584        0.5773854258       -0.7582872113
 O         -0.1195023597        1.0009296558       -1.3938431459
 H          1.4082421778       -0.4028706169       -0.1597456125
 C          1.3785222037       -1.3564574575        0.3399498583
 C          0.3814630484       -2.2682531913        0.0185696947
 C          0.3449446086       -3.4875167734        0.6839123916
 C          1.2786450162       -3.7816881625        1.6615104286
 C          2.2515890090       -2.8605568756        2.0003118800
 C          2.2981367726       -1.6357924197        1.3398745242
 N          3.2863386834       -0.7015065016        1.6693960215
 S          3.0701760343        0.9563504114        1.5546877001
 O          3.9366707367        1.4895472846        2.5878645002
 O          1.6783789143        1.3267125289        1.6430054184
 C          3.7856535251        1.3533650077       -0.0265536602
 C          5.1626567118        1.2727192660       -0.1237468584
 C          5.7703777111        1.5592848123       -1.3340586313
 C          4.9941919419        1.9205090582       -2.4256968738
 C          3.6156745511        1.9985804867       -2.3109273357
 C          2.9993830248        1.7143480293       -1.1004990046
 H          1.9262675293        1.7601864104       -0.9938382718
 H          3.0060406054        2.2768421591       -3.1559726324
 H          5.4650339335        2.1436552026       -3.3702559005
 H          6.8430883791        1.5005724840       -1.4241716350
 H          5.7272842394        1.0014354318        0.7527151991
 H          3.8576579770       -0.9493562771        2.4633443248
 H          2.9696160612       -3.0799966893        2.7759419941
 H          1.2398187288       -4.7307577532        2.1744377220
 H         -0.4357908283       -4.1951603149        0.4471238895
 C         -0.6662097142       -1.9266707020       -1.0155340438
 H         -1.3715595805       -2.7682606126       -1.0594637342
 C         -0.0476131774       -1.7512185641       -2.3867363714
 C          0.3197472169       -2.9719291720       -3.1744601393
 C         -0.8400831237       -2.1245788071       -3.6020175245
 H         -0.7401396248       -1.5152544522       -4.4874804827
 H         -1.8376797675       -2.5104505751       -3.4494287237
 H          1.2204053661       -2.9481261912       -3.7680444532
 H          0.1076714382       -3.9344286989       -2.7340642378
 H          0.6000960185       -0.8885984373       -2.4639802755
 O         -3.0147854577       -2.2426896801        0.4600756787
