  62
        -98.94497870
 C          2.0501549662        1.3366332540        0.0254868810
 C          2.6393375102        0.6691462629        1.1255697863
 C          3.8250893574       -0.1397997761        0.8240862655
 C          4.2816046308       -0.2090226333       -0.4399524929
 C          5.4931652854       -0.9725087979       -0.9018853873
 C          5.2252386768       -2.4572172002       -1.1841070604
 C          5.0092976596       -3.3262905485        0.0555225585
 H          5.0474111795       -4.3670808949       -0.2721341665
 H          5.8337200673       -3.1742201277        0.7528655319
 C          3.6740914613       -3.0844905975        0.7735565251
 H          2.9923527896       -2.5539323272        0.1040175732
 H          3.2074726890       -4.0442290827        1.0079388198
 C          3.7920155914       -2.3050437212        2.0836385796
 H          4.3661580972       -2.8892307488        2.8061180090
 H          2.7871985781       -2.1629496241        2.4901686690
 C          4.4458246252       -0.9241574460        1.9407164441
 H          4.2825055206       -0.3701637944        2.8683549124
 H          5.5183707504       -1.0311291460        1.7811842587
 H          6.0888534265       -2.8466927351       -1.7280163427
 H          4.3558465538       -2.5368339758       -1.8411474521
 H          6.2895727021       -0.8792368573       -0.1630515888
 H          5.8221450062       -0.5004185180       -1.8300959416
 O          3.6825205458        0.4418244048       -1.4717108437
 C          2.5412801756        1.2076719078       -1.2740205649
 O          2.0776072637        1.7119503654       -2.3133360675
 O          2.1924895290        0.7427856923        2.3025076230
 C          0.8105091516        2.1815137359        0.2604275679
 C         -0.3625846893        1.5718389749       -0.4672273845
 C         -1.1832992275        2.2767050279       -1.3366038802
 C         -2.2298548246        1.6402080639       -1.9830837666
 C         -2.4883507349        0.2996028271       -1.7687483701
 C         -1.6874577484       -0.4096110313       -0.8811294420
 C         -0.6401760925        0.2290680633       -0.2364002178
 H         -0.0140048434       -0.3257860293        0.4514885895
 N         -1.9555739957       -1.7665392740       -0.6363254044
 S         -3.5500028450       -2.2260176021       -0.4181567201
 O         -3.4931305670       -3.3965130421        0.4294140089
 O         -4.1817581107       -2.4106478238       -1.7009984494
 C         -4.3217995727       -0.8659048815        0.4414252990
 C         -5.3926587767       -0.2098644454       -0.1304436404
 C         -5.9590459690        0.8616348708        0.5414228235
 C         -5.4445338652        1.2585436726        1.7656583504
 C         -4.3706476788        0.5864148890        2.3294277717
 C         -3.8020059070       -0.4868296647        1.6632903232
 H         -2.9685667659       -1.0313960367        2.0779281429
 H         -3.9710270801        0.8960298683        3.2818778371
 H         -5.8819304066        2.0962021083        2.2854688814
 H         -6.7953545821        1.3846992681        0.1065423305
 H         -5.7582160056       -0.5498393696       -1.0857309269
 H         -1.3511391712       -2.1891212618        0.0523220905
 H         -3.2868283202       -0.2128243222       -2.2803260035
 H         -2.8508639054        2.1965697883       -2.6681746072
 H         -0.9970312654        3.3216415840       -1.5200340342
 H          0.6134809666        2.1106028167        1.3404989872
 C          1.0683639648        3.6302250322       -0.0923265144
 C          0.2822008136        4.7167285926        0.5766157018
 C          1.7261947806        4.5154446305        0.9220866721
 H          2.4472435946        5.2428528730        0.5805061948
 H          1.9693323753        4.0785723350        1.8797703432
 H          0.0115980123        5.5877640583       -0.0005867765
 H         -0.4582105330        4.4213029122        1.3042294391
 H          1.3520519586        3.7639145006       -1.1298806714
