  62
        -98.93919629
 C         -1.8292374637       -1.3115734221       -0.0367982882
 C         -2.9887848047       -0.9140049695        0.6656335438
 C         -3.7436711321        0.2198669054        0.1016752301
 C         -3.2915509770        0.8117877363       -1.0176502873
 C         -3.8764444836        2.0031087236       -1.7253181534
 C         -3.2180839698        3.3064107423       -1.2415882129
 C         -3.8661385621        3.9381027434       -0.0100999134
 H         -3.2314929482        4.7717476725        0.3000098672
 H         -4.8374013774        4.3523408541       -0.2883834917
 C         -4.0602753900        2.9981142550        1.1826617724
 H         -3.1661215769        2.3865645962        1.3190742756
 H         -4.1690125273        3.6124122554        2.0787649778
 C         -5.2950188596        2.0947477699        1.0457387993
 H         -5.9138090687        2.4588999210        0.2259320470
 H         -5.9021661453        2.1737277575        1.9499916831
 C         -4.9948737725        0.6024111319        0.8445119594
 H         -4.8953175160        0.1176004523        1.8211138768
 H         -5.8507233994        0.1306700629        0.3498623469
 H         -2.1651423741        3.0960823251       -1.0357310930
 H         -3.2507468782        4.0376912552       -2.0516964627
 H         -3.6523189557        1.8741497819       -2.7862362129
 H         -4.9542441575        2.0367764748       -1.5974383949
 O         -2.1555986234        0.4103101262       -1.6520266805
 C         -1.4016465884       -0.6596617793       -1.1935657918
 O         -0.3992976371       -0.9147106418       -1.8832023354
 O         -3.3754161287       -1.4765858286        1.7269269121
 C         -1.0216271860       -2.4876969962        0.4776446654
 C          0.4181677847       -2.1056413711        0.7212054798
 C          1.4767925786       -2.9714638596        0.4746207582
 C          2.7807153766       -2.5799683099        0.7255604864
 C          3.0614363384       -1.3178833373        1.2147480251
 C          2.0110669514       -0.4417798788        1.4576622593
 C          0.7047518655       -0.8441905574        1.2264728673
 H         -0.1085134442       -0.1571543000        1.4266770469
 N          2.2859225405        0.8566556405        1.9188080858
 S          3.5466282099        1.6868865594        1.1924697271
 O          4.7826080143        1.3542138088        1.8576634033
 O          3.1624645384        3.0807601878        1.2522988245
 C          3.6124695389        1.1221953091       -0.4994578758
 C          4.8138735989        0.6855643751       -1.0204516943
 C          4.8518659377        0.2347971612       -2.3299727387
 C          3.6913409782        0.2171252224       -3.0881519466
 C          2.4923253521        0.6606596018       -2.5518596450
 C          2.4524648495        1.1240626159       -1.2475086326
 H          1.5272774551        1.4678870191       -0.8123903990
 H          1.5796755422        0.6234473201       -3.1244796780
 H          3.7169073808       -0.1475508260       -4.1028602375
 H          5.7825141979       -0.1095499535       -2.7514668002
 H          5.6876467018        0.7005131259       -0.3892469884
 H          1.4691501966        1.4434267416        2.0044572075
 H          4.0710605202       -0.9959412403        1.4129952065
 H          3.5910188343       -3.2653901473        0.5309762276
 H          1.2804934285       -3.9556074317        0.0824927099
 H         -1.4732326161       -2.7520065402        1.4461376264
 C         -1.1719142384       -3.6663186203       -0.4639539596
 C         -1.1739493183       -5.0693436032        0.0632526793
 C         -2.4462953420       -4.4540673246       -0.4339764528
 H         -2.8608530346       -4.8021715062       -1.3681410396
 H         -3.1917975773       -4.1603106212        0.2907653051
 H         -0.7157355603       -5.8446168059       -0.5322502244
 H         -1.0619376446       -5.2052590483        1.1283646808
 H         -0.7202578377       -3.4818942570       -1.4323444032
