  62
        -98.93443912
 C          2.2877467398        0.3705973994        0.1091026499
 C          3.4997979498        0.8673251588        0.6384133903
 C          4.6942096097        0.0129962388        0.4908769197
 C          4.5614745996       -1.1831783807       -0.1123345013
 C          5.6294496695       -2.2046152906       -0.4009578620
 C          6.5185770396       -1.8120540097       -1.5917485717
 C          6.9671006798       -0.3531226797       -1.6040731605
 H          7.4948151998       -0.1761043690       -2.5449971803
 H          6.0866908498        0.2921428804       -1.6009168100
 C          7.8982117398        0.0508633692       -0.4634300301
 H          8.7926406597       -0.5754183708       -0.4926128106
 H          8.2090820399        1.0821609294       -0.6490494693
 C          7.3024453297       -0.0184303718        0.9443904598
 H          7.9791034097        0.5249009176        1.6104591902
 H          7.2691568596       -1.0422302521        1.3070525090
 C          5.9322504898        0.6361824582        1.0899712002
 H          5.9778282899        1.6566742485        0.6928158511
 H          5.7138537097        0.7543365474        2.1582411403
 H          5.9531561796       -1.9939105189       -2.5089637119
 H          7.3930142595       -2.4648932298       -1.5991900622
 H          6.2276548495       -2.3803747413        0.4880704678
 H          5.1130522694       -3.1356544103       -0.6446342828
 O          3.3666371496       -1.6249426202       -0.6012526317
 C          2.2087605097       -0.8754316101       -0.5108799811
 O          1.2028815196       -1.4181050396       -1.0067577516
 O          3.5893196899        1.9847266484        1.2167911712
 C          1.0308530599        1.2121629594        0.2314098105
 C         -0.0247547402        0.4498284489        0.9928129099
 C          0.2821160297       -0.0227200321        2.2671436095
 C         -0.6490394805       -0.7299473326        3.0014251489
 C         -1.9103278905       -0.9732399121        2.4859794386
 C         -2.2257673704       -0.5094897910        1.2147845190
 C         -1.2865241103        0.2009233495        0.4789745196
 H         -1.5596946602        0.5483670003       -0.5028397001
 N         -3.4859562804       -0.7706158305        0.6542432487
 S         -4.1731587302        0.3576895205       -0.3934238104
 O         -3.6167638702        0.1848784815       -1.7115238705
 O         -4.0771556101        1.6849029700        0.1723228607
 C         -5.8676957503       -0.1986028994       -0.3816746709
 C         -6.8009134702        0.4666962701        0.3904974496
 C         -8.1071283703        0.0030031602        0.4109496092
 C         -8.4550142304       -1.1136133691       -0.3339743417
 C         -7.5072939604       -1.7705826186       -1.1050957422
 C         -6.2001847003       -1.3113596487       -1.1314784718
 H         -5.4320584104       -1.7833030583       -1.7219626022
 H         -7.7819166705       -2.6368668081       -1.6850961129
 H         -9.4716731504       -1.4732175890       -0.3158121521
 H         -8.8468673902        0.5133079598        1.0064158396
 H         -6.4855410402        1.3341790396        0.9475586103
 H         -4.1557372304       -1.1127927509        1.3294511684
 H         -2.6393277505       -1.5257763725        3.0589824982
 H         -0.3950337805       -1.0907091935        3.9869199486
 H          1.2668411197        0.1718412874        2.6705928197
 H          1.3211633699        2.0870414789        0.8325772112
 C          0.5718639100        1.6904919406       -1.1291745291
 C         -0.2759951199        2.9209165407       -1.2427265382
 C          1.1509710801        2.9489261010       -1.6993058181
 H          1.3533885202        2.9890743418       -2.7590459780
 H          1.8703721102        3.4818319604       -1.0948319076
 H         -1.0615601999        2.9372663414       -1.9836835082
 H         -0.5307988399        3.4365515100       -0.3288779278
 H          0.3761388699        0.8741373811       -1.8165832498
