  62
        -98.94386789
 C         -1.8699734726       -0.1076434041        1.0640379883
 C         -2.1122665458        0.3695298506       -0.2465433843
 C         -3.5223484727        0.6033374444       -0.5861921727
 C         -4.4788406567        0.3890787503        0.3354242923
 C         -5.9557950416        0.6069150807        0.1471749848
 C         -6.6801846626       -0.5696845620       -0.5209993712
 C         -6.4024281847       -0.7405671287       -2.0149862598
 H         -7.1341234220       -1.4550932757       -2.3972228805
 H         -6.5751037938        0.2069091044       -2.5263915853
 C         -4.9936173137       -1.2546593657       -2.3427294534
 H         -5.0606785083       -2.0527608638       -3.0855231444
 H         -4.5458191462       -1.6887308367       -1.4459016318
 C         -4.0461927373       -0.1937222409       -2.9032099399
 H         -3.0690543184       -0.6560938095       -3.0655857546
 H         -4.4169128333        0.1558038791       -3.8695023573
 C         -3.8464799809        1.0218906603       -1.9884238486
 H         -2.9985714879        1.5996247524       -2.3655952681
 H         -4.7344123702        1.6538695323       -2.0029438617
 H         -6.4143392186       -1.4884815100        0.0065901671
 H         -7.7525918005       -0.4089162353       -0.3890438974
 H         -6.1210209855        1.5148758674       -0.4335113249
 H         -6.3781043598        0.7495842379        1.1441778532
 O         -4.1999872280       -0.0449293496        1.5935095428
 C         -2.8983449102       -0.3176663774        1.9826646898
 O         -2.7874345721       -0.7253096446        3.1567871665
 O         -1.2037232891        0.5924871464       -1.0885440673
 C         -0.4508045800       -0.4026680547        1.5146552750
 C          0.4062616816        0.8334109630        1.3895680746
 C         -0.0608156223        2.0288259126        1.9310056454
 C          0.6948911579        3.1818600645        1.8556932659
 C          1.9335290277        3.1682985008        1.2382312313
 C          2.4143881655        1.9802948165        0.7028391759
 C          1.6554715574        0.8201277137        0.7889617111
 H          2.0463821693       -0.0892449848        0.3650785317
 N          3.6873276165        1.9273635263        0.1166284178
 S          3.9619998933        1.0269036923       -1.2682281719
 O          5.1979291392        1.5673436495       -1.7967878851
 O          2.8315878153        1.0417532923       -2.1649392314
 C          4.2752877446       -0.6240637207       -0.6812215055
 C          5.1556033105       -0.7991635111        0.3683471179
 C          5.4380351329       -2.0863732404        0.7962969920
 C          4.8462956313       -3.1708640687        0.1662902025
 C          3.9671747130       -2.9780876244       -0.8886370019
 C          3.6768432012       -1.6923598224       -1.3187640976
 H          2.9893986385       -1.4947064491       -2.1264168903
 H          3.5066367436       -3.8218577939       -1.3781909006
 H          5.0683186600       -4.1724200172        0.4996238824
 H          6.1190602896       -2.2411698859        1.6174658695
 H          5.5996042477        0.0671727233        0.8290452450
 H          4.1695271672        2.8137138987        0.0761639132
 H          2.5231980679        4.0701553279        1.1718763423
 H          0.3159754862        4.1016233686        2.2756093349
 H         -1.0313317938        2.0400524346        2.4089899681
 H         -0.5220509048       -0.6564568615        2.5828489001
 C          0.1013087509       -1.5997232946        0.7691910970
 C          1.1058303477       -2.4940105106        1.4299374930
 C         -0.2974706695       -2.9734277291        1.2147511068
 H         -0.4779006092       -3.7266369248        0.4626011093
 H         -0.9542858353       -3.0442828948        2.0698074672
 H          1.8935996190       -2.9201929827        0.8276082334
 H          1.4056309132       -2.2453749880        2.4366291080
 H          0.1886608985       -1.4237306987       -0.2974432515
