  62
        -98.93637272
 C          2.6857567904        1.2319147390        0.1777413694
 C          2.7102404228        0.2061215211       -0.7957799944
 C          3.8992517515       -0.6637260387       -0.7915960308
 C          4.8815902766       -0.4375948511        0.0972672402
 C          6.1889350473       -1.1731408229        0.2533726407
 C          6.1482059207       -2.7068282895        0.1869828090
 C          4.8576861197       -3.3482812259        0.7177278680
 H          5.1195200558       -4.1312930238        1.4319004448
 H          4.2618670090       -2.6065330612        1.2524543090
 C          4.0092129817       -3.9850327708       -0.3858659591
 H          4.6703354738       -4.5268433690       -1.0658114495
 H          3.3359847149       -4.7165483030        0.0673529526
 C          3.1459852458       -3.0166508477       -1.1939641492
 H          2.6932865998       -3.5757987459       -2.0163039648
 H          2.3269752883       -2.6416292876       -0.5738207999
 C          3.8840296328       -1.7990759898       -1.7739651849
 H          4.8867077912       -2.0635713990       -2.1008637092
 H          3.3166507681       -1.4431413091       -2.6381320252
 H          6.9992577337       -3.0699413023        0.7655758295
 H          6.3072380756       -3.0309958922       -0.8405771395
 H          6.8824465482       -0.8004864442       -0.5059471287
 H          6.5768822028       -0.8586495519        1.2251346241
 O          4.8212227105        0.5751082593        1.0088347577
 C          3.7281221544        1.4201438745        1.0830441827
 O          3.8009511174        2.2816250648        1.9832259782
 H         -0.8941511315        2.1316577868       -1.1365165200
 C         -0.8890631669        1.4552716972       -0.2960897667
 C          0.2369001008        1.3536139623        0.5038966756
 C          0.2056345756        0.4762582369        1.5853343417
 C         -0.9148032030       -0.2884495544        1.8438744247
 C         -2.0310575250       -0.1978110397        1.0298782856
 C         -2.0162424515        0.6816363929       -0.0427443201
 N         -3.1392930954        0.7727812797       -0.8789891596
 S         -4.6655260074        0.8882754761       -0.1976789958
 O         -5.4819294619        1.5200239609       -1.2111034152
 O         -4.6228875513        1.5416213219        1.0899764114
 C         -5.1843124942       -0.8043806801       -0.0077698414
 C         -5.1353778705       -1.6304565247       -1.1134680292
 C         -5.5472043538       -2.9471073165       -0.9834634072
 C         -6.0017173998       -3.4120684231        0.2417259929
 C         -6.0483127205       -2.5691266257        1.3414478417
 C         -5.6366623833       -1.2511437855        1.2182747226
 H         -5.6498761300       -0.5615053768        2.0473505576
 H         -6.4023280254       -2.9323067255        2.2929285883
 H         -6.3214741841       -4.4374908871        0.3398646686
 H         -5.5116938158       -3.6058574945       -1.8362454591
 H         -4.7778837451       -1.2317643283       -2.0481698720
 H         -3.0291172767        1.4118326843       -1.6524596380
 H         -2.9064892451       -0.7959045977        1.2228311801
 H         -0.9201801299       -0.9660297513        2.6844120326
 H          1.0792726763        0.4023141757        2.2196122341
 C          1.4895404471        2.1623173019        0.2673347994
 H          1.6588288473        2.7914546207        1.1534332947
 C          1.4271046551        3.0530873485       -0.9555438426
 C          0.7525262370        4.3891410385       -0.8795896616
 C          2.2456657513        4.3072860833       -0.9788801293
 H          2.7183864085        4.5978647809       -1.9050479332
 H          2.8325672883        4.5325358302       -0.1002431584
 H          0.2018640087        4.7411712586       -1.7392527023
 H          0.3217007371        4.6787005816        0.0672141993
 H          1.3506858114        2.4903164569       -1.8789257625
 O          1.7908490036        0.0261797544       -1.6355647769
