  62
        -98.94043567
 C          2.4677989342        1.2218882803        0.0162831392
 C          2.4454571899        0.0060376516       -0.7078598316
 C          3.7575790078       -0.6016975432       -0.9749581175
 C          4.8724207750        0.0210238201       -0.5502111068
 C          6.2662353649       -0.5133948431       -0.7055266074
 C          6.6758863099       -1.3547066450        0.5115101236
 C          5.6397576694       -2.4044614180        0.9131942099
 H          6.0479572782       -2.9566188620        1.7624346387
 H          4.7361689021       -1.8994144237        1.2624165701
 C          5.2669055675       -3.3881418505       -0.2046781880
 H          6.0277115351       -3.3675367710       -0.9857213344
 H          5.2529371602       -4.3989524979        0.2082107781
 C          3.8924406566       -3.1450153981       -0.8313169678
 H          3.1363984976       -3.0711169182       -0.0450786857
 H          3.6396763753       -4.0132198926       -1.4459534576
 C          3.7767446911       -1.9037184514       -1.7252177725
 H          4.5755902169       -1.9094672570       -2.4697325078
 H          2.8176849921       -1.9604595223       -2.2489899079
 H          7.6252678698       -1.8446981916        0.2885047052
 H          6.8299548702       -0.6838303619        1.3597136213
 H          6.3203003970       -1.1141191531       -1.6111894267
 H          6.9498896011        0.3319637151       -0.7987479157
 O          4.8529508377        1.1994081563        0.1237080022
 C          3.6554451678        1.8222028727        0.4337108942
 O          3.7776700708        2.8847242849        1.0759873142
 O          1.3866663336       -0.5462380473       -1.1095789824
 C          1.1653142426        1.9259727768        0.3500824869
 C          0.2431411277        0.9897407948        1.0924177525
 C          0.7403612517        0.2827841306        2.1846097632
 C         -0.0662909935       -0.5911265685        2.8860847913
 C         -1.3851115837       -0.7802823806        2.5117632612
 C         -1.8974299216       -0.0668521231        1.4352120704
 C         -1.0864358477        0.8207258979        0.7402289644
 H         -1.5048708633        1.3569582544       -0.0936985489
 N         -3.2527062426       -0.2050219011        1.0764311393
 S         -3.6990031145       -0.3441899811       -0.5468621930
 O         -3.1265468595       -1.5404543470       -1.1254020039
 O         -3.4301883296        0.8954119391       -1.2276960702
 C         -5.4602458188       -0.5447934152       -0.3470773669
 C         -6.0193366059       -1.8069450216       -0.4066334839
 C         -7.3862333403       -1.9445105168       -0.2211581040
 C         -8.1658550605       -0.8240484359        0.0226321711
 C         -7.5904783282        0.4368817909        0.0782207989
 C         -6.2249951359        0.5810696307       -0.1076499155
 H         -5.7350434500        1.5403020486       -0.0817893368
 H         -8.2002571847        1.3061240086        0.2649014241
 H         -9.2290668543       -0.9336518124        0.1671084069
 H         -7.8368926324       -2.9228660443       -0.2674111980
 H         -5.3758046271       -2.6484858474       -0.6075575564
 H         -3.7016846808       -0.9459792798        1.6001876151
 H         -2.0126224244       -1.4732921296        3.0520836015
 H          0.3359433894       -1.1380575700        3.7258905517
 H          1.7750076362        0.4231206609        2.4690025300
 H          1.4299044311        2.7541442256        1.0245310684
 C          0.5522714639        2.5034181131       -0.9087205039
 C         -0.2988486491        3.7343121605       -0.8387800903
 C          1.0719271938        3.8040534594       -1.4400457295
 H          1.1635267405        3.9244665365       -2.5090940528
 H          1.8554889286        4.2892394957       -0.8759966126
 H         -1.1547845423        3.8021644053       -1.4935132641
 H         -0.4487258369        4.1822519966        0.1319748183
 H          0.2839430805        1.7393506487       -1.6308475290
