  62
        -98.93806620
 C         -2.5966158314       -1.2934074809        0.1412509728
 C         -2.6561405896       -0.2920058662       -0.8563458970
 C         -3.5238235394        0.8657153809       -0.5720230164
 C         -4.2038323396        0.9230565872        0.5849375053
 C         -5.1661757109        1.9818535531        1.0615708121
 C         -4.7776141458        3.4491011025        0.8335551678
 C         -3.2713167914        3.7411648335        0.9008795026
 H         -3.1018585841        4.5796496146        1.5790104522
 H         -2.7371613350        2.8812670453        1.3097530458
 C         -2.6715769306        4.1110767762       -0.4579713956
 H         -3.3526279370        4.7963197234       -0.9676618172
 H         -1.7315468079        4.6438233511       -0.2934113651
 C         -2.3630475008        2.9331369514       -1.3813636883
 H         -1.5154048220        2.3668767465       -0.9826683950
 H         -2.0476913596        3.3369146684       -2.3469156838
 C         -3.5238754304        1.9505817890       -1.6105055852
 H         -3.3589778094        1.4531031432       -2.5700169151
 H         -4.4772942597        2.4714211492       -1.6489732826
 H         -5.2947491836        4.0336606685        1.5961956620
 H         -5.1596874664        3.7830983778       -0.1300553174
 H         -6.1372751886        1.7928089109        0.5950088770
 H         -5.2819115047        1.7965955672        2.1321017630
 O         -4.1220524016       -0.0658398615        1.5185577997
 C         -3.3203459460       -1.1753728619        1.3316486842
 O         -3.3407096535       -1.9839076444        2.2809526006
 O         -2.0343386569       -0.3389453872       -1.9520874853
 C         -1.7285312003       -2.5390299348        0.0258489679
 C         -0.2927249451       -2.1800757072        0.3263272056
 C          0.2975641467       -2.5597139531        1.5264694159
 C          1.5950787670       -2.1816298122        1.8240963688
 C          2.3267053836       -1.4121988547        0.9368803873
 C          1.7410688994       -1.0179321421       -0.2586615644
 C          0.4474551265       -1.4141425333       -0.5631196561
 H         -0.0083351158       -1.0849354846       -1.4849284754
 N          2.4676526564       -0.2131509838       -1.1583746439
 S          3.0685475645        1.2340404872       -0.5473158959
 O          2.2722982623        1.7134238349        0.5598800534
 O          3.1844188676        2.1164451803       -1.6878504885
 C          4.7025544989        0.8016331412        0.0138807387
 C          5.5742774733        0.2407480987       -0.8990759960
 C          6.8514888647       -0.0992253356       -0.4830465599
 C          7.2343714960        0.1288716637        0.8305145402
 C          6.3487894990        0.6962009200        1.7339037405
 C          5.0689752002        1.0375217673        1.3242854328
 H          4.3441616194        1.4750844180        1.9923929843
 H          6.6481234751        0.8732186482        2.7544859939
 H          8.2289160020       -0.1369680552        1.1522503196
 H          7.5430844634       -0.5402631180       -1.1826570758
 H          5.2374992342        0.0845027357       -1.9102196984
 H          1.9638015029       -0.0383853300       -2.0172544375
 H          3.3340252271       -1.1054806357        1.1673756811
 H          2.0399529823       -2.4845861101        2.7597236505
 H         -0.2782626639       -3.1370469689        2.2355587796
 H         -2.0776204581       -3.2147502311        0.8177538215
 C         -1.8756892400       -3.2468751499       -1.3061937461
 C         -1.4715896562       -4.6856039022       -1.4098816196
 C         -2.9213272290       -4.3087139848       -1.4565067347
 H         -3.4465586595       -4.3838638583       -2.3968228527
 H         -3.5352381101       -4.5308191512       -0.5955781267
 H         -0.9986620129       -5.0231235658       -2.3192075416
 H         -1.1023398336       -5.1659031575       -0.5164012445
 H         -1.6950570709       -2.6084102065       -2.1603865244
