  62
        -98.93098009
 C         -2.3877671872       -1.3274693551        0.3026603460
 C         -2.7657551592       -0.1225534768        0.9433461542
 C         -3.9088160977        0.6148281173        0.3769062407
 C         -4.5043568145        0.1350334476       -0.7295937477
 C         -5.6737359843        0.7004224230       -1.4949731814
 C         -5.6543739591        2.2150578629       -1.7529006257
 C         -6.7085346655        2.9810105754       -0.9520348947
 H         -6.9296079044        3.9167798383       -1.4702281795
 H         -7.6281781729        2.3925499115       -0.9353077570
 C         -6.3063911757        3.3305469640        0.4796770399
 H         -5.5452328333        4.1137247122        0.4600181836
 H         -7.1858110494        3.7450435954        0.9781681792
 C         -5.7746907752        2.1636575792        1.3146918727
 H         -5.9142886969        2.4172198532        2.3677848223
 H         -6.3552568411        1.2616530585        1.1252771574
 C         -4.2803124390        1.8811374047        1.0992072766
 H         -3.7779244021        1.8019909440        2.0686346640
 H         -3.8089051620        2.7270969013        0.5895283206
 H         -4.6610986929        2.6128175552       -1.5490263818
 H         -5.8543866148        2.3754673731       -2.8135465220
 H         -6.5950722119        0.4242006690       -0.9764909922
 H         -5.6773532550        0.1615835928       -2.4450706869
 O         -4.0993657503       -1.0217865150       -1.3233203607
 C         -3.0409574506       -1.7798118234       -0.8435898035
 O         -2.8079795524       -2.7969362785       -1.5199649369
 O         -2.1720133168        0.3175529689        1.9667030736
 C         -1.2094506437       -2.0744896149        0.9026917582
 C          0.0662583750       -1.5708299747        0.2776338627
 C          0.2697332709       -1.6391807509       -1.0979263531
 C          1.4303405195       -1.1385740430       -1.6578125109
 C          2.4035332204       -0.5526108115       -0.8658867129
 C          2.1993955878       -0.4575434075        0.5034678180
 C          1.0391204684       -0.9760359044        1.0661091041
 H          0.8777750841       -0.8892511853        2.1321473924
 N          3.1775487258        0.1406709522        1.3135795310
 S          3.8651344077        1.5888713112        0.8156262903
 O          4.3469426256        2.2099124976        2.0299745783
 O          2.9500920937        2.3673471919        0.0137272181
 C          5.2611427359        1.0786418798       -0.1659916575
 C          5.4481689852        1.6161442523       -1.4244068737
 C          6.5481900342        1.2165445326       -2.1674959170
 C          7.4373870642        0.2921489549       -1.6413129170
 C          7.2368412837       -0.2361064517       -0.3746142162
 C          6.1402974042        0.1603278821        0.3740495751
 H          5.9508073847       -0.2249931441        1.3618556801
 H          7.9302726682       -0.9551929070        0.0308105113
 H          8.2916108203       -0.0183203658       -2.2220127980
 H          6.7055738788        1.6267991800       -3.1521085565
 H          4.7266382491        2.3266137778       -1.7957692792
 H          2.9300157352        0.1786369142        2.2919967797
 H          3.3043873792       -0.1532287124       -1.3021514313
 H          1.5790911701       -1.2014875901       -2.7252175424
 H         -0.4962175815       -2.0805284785       -1.7180654019
 H         -1.1991842800       -1.7695464131        1.9612438245
 C         -1.3607845191       -3.5881428874        0.8682078502
 C         -0.4592453948       -4.5005458989        0.0969351351
 C         -0.3641494833       -4.4471287350        1.5900688370
 H         -0.7225778923       -5.2858043802        2.1673471784
 H          0.4959537179       -3.9517875451        2.0156933927
 H         -0.9081675672       -5.3657655978       -0.3663761768
 H          0.3422489245       -4.0660027311       -0.4787260572
 H         -2.4001700969       -3.8916810746        0.9351944868
