  62
        -98.94277534
 C         -1.9927333093       -1.4612903513       -0.0513594005
 C         -1.6949441896       -0.1430121509       -0.4727429098
 C         -2.8537959099        0.7188473788       -0.7541975695
 C         -4.0970279497        0.2299566883       -0.6009512599
 C         -5.3595740900        1.0169307880       -0.7968715897
 C         -5.8132321404        1.6728177572        0.5151788206
 C         -4.7030332007        2.4274270971        1.2470450312
 H         -5.1473993510        2.8698636965        2.1413152814
 H         -3.9482148905        1.7131091972        1.5838441409
 C         -4.0253575210        3.5259351278        0.4160245019
 H         -3.9221717114        4.4191354975        1.0357329224
 H         -4.6581174409        3.7916091781       -0.4316644081
 C         -2.6257897708        3.1693446485       -0.0888023781
 H         -2.0149906208        2.8129529283        0.7446759718
 H         -2.1618321610        4.0826003489       -0.4709183976
 C         -2.5706990303        2.1230335092       -1.2090664387
 H         -3.2475441603        2.4111145394       -2.0159704486
 H         -1.5509358602        2.1095164797       -1.6052468685
 H         -6.6350024606        2.3560149770        0.2929109509
 H         -6.1914012402        0.8920439467        1.1793340101
 H         -5.1937296701        1.7774226185       -1.5574960792
 H         -6.1399432197        0.3361458780       -1.1412528702
 O         -4.3452865694       -1.0402178820       -0.1900018607
 C         -3.3071105391       -1.9064911918        0.1123550390
 O         -3.6769257188       -3.0263255121        0.5176135384
 H          1.8159812410       -2.0941964299       -0.2181320303
 C          1.4983834307       -1.6971784906        0.7309205998
 C          0.1719957807       -1.7742673212        1.1248599496
 C         -0.1939946297       -1.2204818820        2.3498801298
 C          0.7405388800       -0.5957572421        3.1515715003
 C          2.0627807200       -0.5127124815        2.7506101006
 C          2.4409770704       -1.0662286807        1.5336405503
 N          3.7864249404       -1.0328729700        1.1265874105
 S          4.2538618405       -0.4912505490       -0.3852862691
 O          3.5911265009       -1.2523542887       -1.4115797996
 O          5.6987785705       -0.5741948886       -0.3636481489
 C          3.7705139199        1.2257185908       -0.4403910382
 C          2.4343743598        1.5536571505       -0.5530286183
 C          2.0773746594        2.8936795403       -0.5391412176
 C          3.0491304190        3.8743338006       -0.4176796169
 C          4.3869885191        3.5259193910       -0.3060911869
 C          4.7522993396        2.1899115511       -0.3117045876
 H          5.7788851497        1.8716825914       -0.2267353576
 H          5.1430565389        4.2888916812       -0.2122213164
 H          2.7618728387        4.9141171805       -0.4094583864
 H          1.0333539893        3.1519904300       -0.6204393976
 H          1.6845180701        0.7845336303       -0.6460913288
 H          4.4129778702       -0.6524911702        1.8219133708
 H          2.7957976098       -0.0255253916        3.3757901609
 H          0.4391111997       -0.1669064027        4.0955206905
 H         -1.2286599797       -1.2832118025        2.6607592597
 C         -0.8929130190       -2.4499240911        0.2948220291
 H         -1.3801595088       -3.2083045716        0.9307749986
 C         -0.3270903886       -3.1918641303       -0.9068352112
 C         -1.1628920783       -3.4663751399       -2.1203426115
 C         -0.0187602486       -2.5030568395       -2.2005521808
 H          0.8736766616       -2.7935000989       -2.7361044109
 H         -0.2366800089       -1.4492616495       -2.2698629403
 H         -2.1682716784       -3.0707309102       -2.1380293214
 H         -1.0646785879       -4.4276223396       -2.6020740120
 H          0.3518877116       -3.9852767302       -0.6078255916
 O         -0.5289291798        0.3069724695       -0.6082736794
