  62
        -98.93542689
 C         -0.8459378920       -1.6971238174        0.2523528494
 C         -1.6483221386       -0.9003638837        1.1036061279
 C         -2.8437760608       -0.2681052705        0.5107554962
 C         -3.0655037904       -0.4193222883       -0.8081332705
 C         -4.2136684609        0.0955333750       -1.6374645282
 C         -4.1293563707        1.5996266364       -1.9304510729
 C         -3.7911049147        2.4642101014       -0.7205765429
 H         -2.8236573728        2.1531541169       -0.3245441127
 H         -3.6905163603        3.4941508531       -1.0715493094
 C         -4.8284792990        2.4544923097        0.3996682416
 H         -4.5268106423        3.2122636683        1.1271753878
 H         -5.7985313828        2.7522445652       -0.0040488262
 C         -4.9953479004        1.1280397555        1.1457046964
 H         -5.6177639962        0.4330307046        0.5879860353
 H         -5.5294251142        1.3420988510        2.0760530053
 C         -3.6856008134        0.4513232588        1.5370487030
 H         -3.8961944403       -0.2950256204        2.3126368048
 H         -3.0278041506        1.1828122458        2.0199116753
 H         -5.0816079339        1.9186585467       -2.3580025722
 H         -3.3515464261        1.7561731710       -2.6815303134
 H         -4.1759098501       -0.4458142606       -2.5855458678
 H         -5.1566056636       -0.1486056259       -1.1563247332
 O         -2.1981458338       -1.0995741090       -1.6109712653
 C         -1.0841414792       -1.7598598553       -1.1205853159
 O         -0.4155285566       -2.3407990584       -1.9948953993
 O         -1.3914221321       -0.7301860207        2.3264753255
 C          0.3241309777       -2.4375919258        0.8717706665
 C          1.5828397216       -2.2153081834        0.0727810883
 C          2.2902206849       -3.2330405466       -0.5525561901
 C          3.4470451335       -2.9477157369       -1.2562906644
 C          3.9313635302       -1.6554002818       -1.3312611274
 C          3.2288914294       -0.6276323014       -0.7108390783
 C          2.0595802506       -0.9136357108       -0.0267510584
 H          1.5096724527       -0.1144614341        0.4486288458
 N          3.6856760446        0.6961248279       -0.7800089419
 S          3.4904246688        1.7398986097        0.5105446227
 O          4.5305260302        2.7306364709        0.3294541466
 O          3.4940358597        1.0393519966        1.7728564535
 C          1.9179557106        2.5201512256        0.2206649884
 C          1.7678251557        3.2451944440       -0.9452752931
 C          0.5717609411        3.9040579266       -1.1758947057
 C         -0.4480941638        3.8305481950       -0.2391948727
 C         -0.2848600021        3.0924522147        0.9224741583
 C          0.9093847964        2.4299751225        1.1584384317
 H          1.0690193003        1.8457225664        2.0519456006
 H         -1.0794170836        3.0273136064        1.6492438703
 H         -1.3751702280        4.3529996783       -0.4130576787
 H          0.4378991222        4.4753522180       -2.0802695982
 H          2.5897255478        3.2888006229       -1.6402990912
 H          4.5772418395        0.8174324157       -1.2372315458
 H          4.8406642098       -1.4373215152       -1.8706975381
 H          3.9842055703       -3.7456812362       -1.7463903555
 H          1.9253838850       -4.2458292816       -0.5079664655
 H          0.4671212476       -1.9512267034        1.8520548402
 C          0.0441508827       -3.9061205860        1.1571847902
 C         -1.3463830622       -4.3856995306        1.4453465261
 C         -0.6586621273       -4.7992573660        0.1806680106
 H         -0.3248448433       -5.8228809810        0.0921982474
 H         -0.9841845821       -4.3645521707       -0.7511298415
 H         -1.4848020213       -5.1217717059        2.2230317110
 H         -2.1479916428       -3.6643528652        1.3786002692
 H          0.8373415593       -4.3586798013        1.7449767682
