  62
        -98.94416615
 C          2.1958614786       -0.7643572716        0.0549537058
 C          2.9171489593       -0.1199895075       -0.9775002978
 C          3.7055187435        1.0494543921       -0.5729433827
 C          3.6700607122        1.4676211406        0.7057060417
 C          4.3980976008        2.6586425842        1.2674703936
 C          5.8533932906        2.3704776759        1.6609969223
 C          6.8204670135        2.1914081544        0.4900557246
 H          6.7282272224        3.0395210654       -0.1891769792
 H          7.8308267260        2.2135110057        0.9031411708
 C          6.6356755567        0.8822008563       -0.2899288712
 H          6.0509569241        0.1802134190        0.3090221202
 H          7.6103344604        0.4203955192       -0.4628190562
 C          5.9649412209        1.0458697097       -1.6539034714
 H          6.6057683588        1.6399451039       -2.3092287570
 H          5.8525709790        0.0550054721       -2.1014748199
 C          4.5787247610        1.7017659428       -1.6020100568
 H          4.6745198031        2.7686479971       -1.4007307244
 H          4.1001276027        1.5709645867       -2.5759612691
 H          5.8743040034        1.4782046735        2.2908315708
 H          6.1999702659        3.2120903446        2.2650747875
 H          4.3693889897        3.4789303851        0.5496101879
 H          3.8524575906        2.9610465216        2.1638605840
 O          2.9266071121        0.8468817144        1.6597740179
 C          2.1888183043       -0.2920705466        1.3677696359
 O          1.5785922922       -0.7713860916        2.3408995870
 H         -0.0628248146        0.1586373472       -0.8522144035
 C         -0.6665821953       -0.5838755876       -0.3435925532
 C         -0.0767737656       -1.7801821642        0.0468377400
 C         -0.8680612593       -2.7291124675        0.6804430216
 C         -2.2044080165       -2.4715668942        0.9340077787
 C         -2.7804726622       -1.2713685521        0.5622775479
 C         -2.0027833403       -0.3203296283       -0.0858691714
 N         -2.5771296265        0.9074559793       -0.4610259907
 S         -3.9994046476        0.8750124408       -1.3541930198
 O         -4.0925890890       -0.3235646718       -2.1551778201
 O         -4.0235193272        2.1310671085       -2.0716315405
 C         -5.2826218581        0.8869557571       -0.1202928536
 C         -5.2957107288        1.9207362928        0.7954898036
 C         -6.2921828013        1.9489123366        1.7579872104
 C         -7.2545030203        0.9503532557        1.7865455466
 C         -7.2295795300       -0.0787487377        0.8577875639
 C         -6.2349578566       -0.1132972789       -0.1072629987
 H         -6.1720754625       -0.8958876862       -0.8464535130
 H         -7.9786552121       -0.8537910272        0.8816127281
 H         -8.0284525697        0.9748988792        2.5373390744
 H         -6.3145018940        2.7472926764        2.4821696736
 H         -4.5316790927        2.6780313297        0.7372612550
 H         -1.9184200084        1.5541553068       -0.8702160468
 H         -3.8182587126       -1.0645673267        0.7660246557
 H         -2.8050029636       -3.2159527915        1.4339485023
 H         -0.4378403030       -3.6703727967        0.9803405153
 C          1.3811560699       -2.0005091695       -0.2757496911
 H          1.4702734968       -2.1261136385       -1.3659419786
 C          1.9752520909       -3.2172712976        0.4032411018
 C          1.8596892703       -4.5710143120       -0.2292495567
 C          3.1813067364       -3.8655324097       -0.2054440337
 H          3.9549132778       -4.2357695700        0.4504154782
 H          3.5558449388       -3.4464094216       -1.1282014865
 H          1.7282866623       -5.4300985079        0.4111827227
 H          1.3396263530       -4.6395477918       -1.1728692163
 H          1.9359471078       -3.1489148107        1.4846272217
 O          2.8952562304       -0.4979920640       -2.1808660674
