  62
        -98.93721696
 C          1.5205579397        1.5688859695        0.2271726198
 C          1.7444766995        0.3788283297        0.9676779502
 C          3.0340683793       -0.2938868807        0.7636940901
 C          3.9254321393        0.2354029689       -0.0934961702
 C          5.3256746292       -0.2496638015       -0.3634127403
 C          5.4643412387       -1.6433676618       -1.0040525199
 C          5.6537855286       -2.7838299315        0.0034831105
 H          6.3944624784       -3.4824843718       -0.3908614094
 H          6.0703260989       -2.3735148113        0.9243071603
 C          4.3986996585       -3.5982237311        0.3285076709
 H          4.6073854085       -4.1935129609        1.2200586011
 H          4.2024398482       -4.2925897913       -0.4915840988
 C          3.1207100387       -2.7915059507        0.5599589709
 H          2.7366232686       -2.4324631309       -0.3980123791
 H          2.3690123486       -3.4698755904        0.9695627313
 C          3.2810229392       -1.5800515105        1.4989660105
 H          2.5390970493       -1.6273096701        2.2991898106
 H          4.2715998792       -1.5748585306        1.9523831803
 H          4.6047637686       -1.8371495518       -1.6448318496
 H          6.3450107986       -1.6076680222       -1.6473035800
 H          5.8872642893       -0.2254787014        0.5736017896
 H          5.7637597092        0.4943844581       -1.0319765406
 O          3.6594047995        1.3581751687       -0.8110955405
 C          2.4596953296        2.0442446890       -0.6890016705
 O          2.3804663997        3.0334156788       -1.4430483108
 O          0.9061944296       -0.0894537298        1.7845732105
 C          0.2106735599        2.2921030299        0.4880387298
 C         -0.8546706504        1.9072566599       -0.5105913199
 C         -0.6793653306        2.1020633794       -1.8767343300
 C         -1.6771381608        1.7453185193       -2.7649891597
 C         -2.8572374008        1.1791441198       -2.3139925493
 C         -3.0436120707        0.9838466302       -0.9508453692
 C         -2.0458659704        1.3580348003       -0.0605887895
 H         -2.2083124803        1.2088234806        0.9957731406
 N         -4.2368623407        0.4296841507       -0.4611143388
 S         -4.2010094208       -0.7350792590        0.7414744815
 O         -5.5342972309       -1.2959049487        0.7316137719
 O         -3.7698246404       -0.1487548287        1.9839214813
 C         -3.0340141311       -1.9484959294        0.1557600217
 C         -3.5065224415       -2.9292998496       -0.6963919579
 C         -2.6174593818       -3.8506178500       -1.2234084278
 C         -1.2704582918       -3.7691782702       -0.9020155080
 C         -0.8135390814       -2.7785696100       -0.0481188084
 C         -1.6986360111       -1.8578067296        0.4908626115
 H         -1.3473299708       -1.0897093695        1.1611600912
 H          0.2306501487       -2.7003573402        0.2090625814
 H         -0.5737350620       -4.4816229105       -1.3150875079
 H         -2.9737175421       -4.6251663301       -1.8833266175
 H         -4.5620699616       -2.9608820894       -0.9134494177
 H         -4.9032366909        0.1797297706       -1.1775723486
 H         -3.6312790910        0.8963883597       -3.0110571491
 H         -1.5317290709        1.9030800390       -3.8230129897
 H          0.2443896295        2.5330121191       -2.2315669403
 H         -0.1225662700        1.9364662003        1.4733044600
 C          0.3481607703        3.8010598799        0.5524235693
 C         -0.6961917594        4.5911374304        1.2799188993
 C          0.6794890006        4.4538515102        1.8590158691
 H          1.3323118508        5.3137375301        1.8537736287
 H          0.8079095506        3.8142202005        2.7204032692
 H         -0.9915030193        5.5476264603        0.8769177190
 H         -1.5011778495        4.0450465707        1.7492493396
 H          0.7757337702        4.2338524495       -0.3422654809
