  62
        -98.94126062
 C          1.8836570178        0.6137074996        0.0264096040
 C          2.6038910956        0.0985708558        1.1340709753
 C          3.6904406764       -0.8397948424        0.8246535836
 C          3.8944206351       -1.2077039996       -0.4530902144
 C          4.9980046250       -2.1111906674       -0.9195901122
 C          6.2499455729       -1.3071928447       -1.2979096860
 C          6.6749326629       -0.2897254617       -0.2389660146
 H          7.5841511832        0.1951815298       -0.6007342203
 H          5.9083176158        0.4846638565       -0.1607047999
 C          6.9332028121       -0.8891499356        1.1505300323
 H          7.8600357573       -0.4687010845        1.5463570936
 H          7.0763171450       -1.9671958278        1.0679534044
 C          5.8385396978       -0.6010697547        2.1796973461
 H          5.6279777704        0.4713317457        2.1998930933
 H          6.2184652933       -0.8777574492        3.1667497431
 C          4.5154281453       -1.3490025616        1.9728984038
 H          4.7101340375       -2.4179961136        1.8639306464
 H          3.9056346348       -1.2003573577        2.8690434420
 H          7.0670645402       -2.0073190467       -1.4810529140
 H          6.0481740627       -0.7699580348       -2.2275584015
 H          5.2352208155       -2.8238836557       -0.1318896789
 H          4.6478314833       -2.6570738765       -1.7973895859
 O          3.1318497378       -0.7578062586       -1.4803648890
 C          2.1130140272        0.1667591680       -1.2762288057
 O          1.5076338270        0.4834971544       -2.3156905783
 H         -0.5128070567       -0.6744754145        0.6175122988
 C         -1.0241729572       -0.0411904165       -0.0975600565
 C         -0.4897958020        1.2071955443       -0.3956544138
 C         -1.1546867780        2.0095358052       -1.3123835405
 C         -2.3087100798        1.5585386657       -1.9302289991
 C         -2.8264407618        0.3091394621       -1.6458006647
 C         -2.1745256985       -0.4979607583       -0.7211226129
 N         -2.6926444228       -1.7674778111       -0.4189075153
 S         -4.3447695653       -1.9386828191       -0.2339214008
 O         -4.5078458166       -3.0761313128        0.6445952667
 O         -4.9729785861       -2.0492783825       -1.5269793004
 C         -4.8897572896       -0.4438594725        0.5741592546
 C         -4.3452875226       -0.1324439343        1.8043961288
 C         -4.7376264967        1.0372295889        2.4343354764
 C         -5.6640526397        1.8712336670        1.8268298754
 C         -6.2060662324        1.5416172843        0.5945268376
 C         -5.8153801035        0.3738464537       -0.0412005176
 H         -6.2090133952        0.0804172657       -1.0007395042
 H         -6.9280361633        2.1904517367        0.1255716274
 H         -5.9649997471        2.7825177807        2.3190010163
 H         -4.3172212461        1.2945696543        3.3933287037
 H         -3.6311769760       -0.8041384773        2.2535821971
 H         -2.1825944474       -2.2665170366        0.2940116496
 H         -3.7100264450       -0.0631468859       -2.1382485779
 H         -2.8082153101        2.1871839168       -2.6513869549
 H         -0.7550157634        2.9770859009       -1.5663942320
 C          0.7774398336        1.6132872019        0.3136464380
 H          0.6010776184        1.5131210356        1.3980776987
 C          1.1686350225        3.0640972302        0.0762098867
 C          2.5970624476        3.5046138869        0.1851275602
 C          1.9113152989        3.5092080109       -1.1465291609
 H          1.6523667265        4.4624985115       -1.5838359274
 H          2.1808968401        2.7566529346       -1.8705200476
 H          3.3422369811        2.7450879414        0.3733755399
 H          2.8089590521        4.4501835994        0.6613065979
 H          0.4262273256        3.7513976493        0.4698520608
 O          2.3441503621        0.4058729221        2.3286548508
