  62
        -98.93838411
 C         -2.2105402029       -1.2170735865        0.2904450816
 C         -2.3841785549       -0.1531015230       -0.6242553858
 C         -3.2397548287        0.9660197842       -0.1835155248
 C         -3.7876217566        0.9453896159        1.0450938337
 C         -4.6397762197        1.9596361290        1.7792936685
 C         -5.2954160468        3.1190049253        1.0336305279
 C         -6.3952243952        2.7092376336        0.0547030256
 H         -7.2510746399        2.3438088533        0.6276194402
 H         -6.7155829768        3.5994184817       -0.4909294956
 C         -6.0138693053        1.6222068997       -0.9468875296
 H         -5.7850896685        0.6968087359       -0.4145470047
 H         -6.8868485240        1.4252545706       -1.5749479172
 C         -4.8463923090        1.9646421756       -1.8701512482
 H         -4.7863798672        1.1804626071       -2.6296174964
 H         -5.0450538379        2.9092242159       -2.3802661301
 C         -3.4685697341        2.0559011812       -1.1914592219
 H         -2.7028682426        1.9283338060       -1.9624309371
 H         -3.3114637871        3.0330397420       -0.7404747829
 H         -4.5411475687        3.7184220566        0.5321143559
 H         -5.7518701647        3.7583998238        1.7941587713
 H         -5.4141162126        1.3808258820        2.2927410674
 H         -3.9944996973        2.3732051375        2.5625288470
 O         -3.5771441812       -0.0954532266        1.9026327639
 C         -2.8030596144       -1.1847521970        1.5560199946
 O         -2.7223396447       -2.0551721540        2.4452202798
 H          0.2157307083       -0.7861763974       -1.4554978794
 C          0.7550276853       -1.2192952225       -0.6261465078
 C          0.1023241883       -2.1022045959        0.2225776537
 C          0.8015949593       -2.6212830673        1.3059436528
 C          2.1193773693       -2.2633229764        1.5308705511
 C          2.7631445858       -1.3762281840        0.6865001765
 C          2.0690943699       -0.8446100889       -0.3920949763
 N          2.7080923474        0.0834509583       -1.2409621081
 S          3.2496506660        1.4943612854       -0.5000219754
 O          2.4647028724        1.8119447033        0.6719331345
 O          3.2802425306        2.4934577018       -1.5461148267
 C          4.9215383714        1.1027100936       -0.0279216856
 C          5.8070800134        0.7309362560       -1.0207185735
 C          7.1127822098        0.4250699616       -0.6719793039
 C          7.5091032865        0.4978614360        0.6553389260
 C          6.6088471120        0.8760608647        1.6396669949
 C          5.3007594835        1.1825831668        1.2975911279
 H          4.5635567429        1.4754994226        2.0282145227
 H          6.9185000087        0.9326366758        2.6708829076
 H          8.5258594672        0.2589714300        0.9245070204
 H          7.8159792215        0.1310989382       -1.4344204259
 H          5.4582490632        0.6916025484       -2.0390648794
 H          2.1430332250        0.3235305001       -2.0445019880
 H          3.7864377187       -1.0861262227        0.8614569978
 H          2.6493519629       -2.6752019129        2.3761596378
 H          0.2957367959       -3.2921057790        1.9853401473
 C         -1.3529057355       -2.4425805670        0.0056767341
 H         -1.6394526125       -3.1837797951        0.7635283659
 C         -1.5962749892       -3.0415511232       -1.3651577486
 C         -1.2070072365       -4.4670982298       -1.6109994801
 C         -2.6547221517       -4.0887718806       -1.5277448982
 H         -3.2434823761       -4.0887625898       -2.4327877912
 H         -3.2092226909       -4.3799157201       -0.6472620218
 H         -0.7989622260       -4.7303145795       -2.5746591216
 H         -0.7797559934       -5.0172373870       -0.7863164747
 H         -1.4703971827       -2.3364855044       -2.1756910268
 O         -1.8551717231       -0.1057177953       -1.7683822296
