  62
        -98.93829682
 C         -1.4535154434       -1.4726899333       -0.7539951106
 C         -2.6307467417       -1.1136098154       -0.0478363459
 C         -3.2028650750        0.2063001103       -0.3392399959
 C         -2.6136784700        0.9831979966       -1.2652969207
 C         -3.0056959138        2.3924981272       -1.6066090238
 C         -2.4245270591        3.3566522330       -0.5521609629
 C         -3.4732238641        4.0509675304        0.3196740968
 H         -2.9470623431        4.4927807405        1.1687307852
 H         -3.9218993817        4.8669344374       -0.2515565431
 C         -4.6128034546        3.1709327181        0.8425281791
 H         -5.3479251552        3.0149416359        0.0515331309
 H         -5.1156647590        3.7394461885        1.6278758978
 C         -4.2023468836        1.8057513991        1.4094071399
 H         -3.1588423182        1.8215632966        1.7287447547
 H         -4.8049669620        1.6089670419        2.2986323927
 C         -4.4150602450        0.6235626633        0.4446131450
 H         -4.6947642562       -0.2599505290        1.0258131788
 H         -5.2402553202        0.8469532281       -0.2369070287
 H         -1.8351108078        4.1281689708       -1.0510654502
 H         -1.7264645101        2.7970982024        0.0770569383
 H         -2.5930065176        2.6166248246       -2.5906420241
 H         -4.0889718801        2.4776393268       -1.6524864948
 O         -1.5165777298        0.5906233466       -1.9551970158
 C         -0.8740762538       -0.6092277401       -1.6815053274
 O          0.1721370582       -0.7629113769       -2.3436261623
 H          1.0631880001       -0.8549274687       -0.0411763885
 C          0.9679385938       -1.4551168568        0.8477949563
 C          0.0805361133       -2.5219081944        0.8630496605
 C         -0.0114246582       -3.2994447795        2.0101253274
 C          0.7478350721       -2.9933953342        3.1260568638
 C          1.5780776410       -1.8878707022        3.1296726614
 C          1.6802255198       -1.1049993674        1.9835114090
 N          2.4940798230        0.0355185356        1.9670590421
 S          2.0578079676        1.4454945997        1.1601686575
 O          2.4459604206        2.5115577813        2.0633633614
 O          0.6732912062        1.4323266728        0.7556748956
 C          3.1720366985        1.4662687053       -0.2291297602
 C          2.7667007557        1.0526287264       -1.4809274048
 C          3.6890841672        1.0584583773       -2.5174175292
 C          4.9909598133        1.4734794797       -2.2883256850
 C          5.3823371877        1.8898876553       -1.0243152199
 C          4.4670926627        1.8861435963        0.0142809019
 H          4.7236365348        2.2149676951        1.0076656661
 H          6.3946669134        2.2154605080       -0.8470376764
 H          5.7020752129        1.4736313322       -3.0993733515
 H          3.3756909049        0.7320353883       -3.4963403561
 H          1.7512649205        0.7264273203       -1.6464730368
 H          2.9218572338        0.2527756165        2.8554183488
 H          2.1373758246       -1.6227403481        4.0142105536
 H          0.6698548267       -3.6038862780        4.0129034190
 H         -0.7006036384       -4.1302861069        2.0343271046
 C         -0.8027396619       -2.7814327720       -0.3368612697
 H         -1.6268330754       -3.4287673622       -0.0052761749
 C         -0.0381008164       -3.4999389363       -1.4282786952
 C          0.1417642752       -4.9846596083       -1.3340798461
 C         -0.7744262073       -4.4044425837       -2.3683991522
 H         -0.4704035891       -4.4244963991       -3.4038076492
 H         -1.8398153338       -4.5122084376       -2.2250580025
 H          1.0794248548       -5.4089718547       -1.6579254667
 H         -0.3039908678       -5.4927381099       -0.4925644507
 H          0.7775361232       -2.9186637887       -1.8368337827
 O         -3.1766935146       -1.8726206510        0.7995253865
