  62
        -98.93189459
 C         -2.3597404101       -0.1057213293        0.5508424004
 C         -3.3554191400       -0.6802915205       -0.2733906889
 C         -4.5160556601        0.1729998989       -0.5971960700
 C         -4.5719343703        1.4332386795       -0.1301888217
 C         -5.5982741104        2.5285166991       -0.3323365431
 C         -6.9894429804        2.2078054081       -0.8735810927
 C         -7.8590435403        1.3586048492        0.0526778184
 H         -8.1193312304        1.9556381803        0.9303674776
 H         -8.7858227402        1.1208527484       -0.4741919313
 C         -7.2238717001        0.0621052200        0.5491102101
 H         -6.3584366601        0.2929889109        1.1736205298
 H         -7.9537227800       -0.4446090793        1.1864481608
 C         -6.8001764899       -0.9188703214       -0.5424682286
 H         -6.5224991698       -1.8556896807       -0.0519601673
 H         -7.6463232699       -1.1247303324       -1.2008827683
 C         -5.6037841300       -0.4766674724       -1.4034419592
 H         -5.1619700599       -1.3712154429       -1.8517180380
 H         -5.9180484501        0.1733657665       -2.2164342400
 H         -6.9160399103        1.7462435569       -1.8539008821
 H         -7.4959803305        3.1668161979       -1.0131030540
 H         -5.6984983405        3.0221823803        0.6395112962
 H         -5.1275293306        3.2578683682       -1.0009599041
 O         -3.5689368304        1.9571514106        0.6339820276
 C         -2.4638977402        1.2138290313        0.9979188986
 O         -1.6521418903        1.8282329923        1.7198350878
 H          1.3132114999        0.2987850920        1.1343337098
 C          1.1640644200       -0.2147845693        0.1937304405
 C         -0.0446440099       -0.8515876298       -0.0477546787
 C         -0.2278303099       -1.4959640514       -1.2664179678
 C          0.7762045101       -1.4915178425       -2.2175473278
 C          1.9786844001       -0.8510369120       -1.9760381787
 C          2.1731903200       -0.2071612304       -0.7616571195
 N          3.3865232999        0.4594364901       -0.5150069404
 S          4.8071385600       -0.3230626703       -0.9907992494
 O          5.0376296699       -0.0398686121       -2.3853827497
 O          4.7443215402       -1.7220790098       -0.6329506775
 C          6.0195626099        0.5192042112        0.0068398895
 C          6.5356277997        1.7211510507       -0.4389726121
 C          7.4635467396        2.3838368019        0.3486345771
 C          7.8570063197        1.8374656435        1.5613049078
 C          7.3305178398        0.6299738840        1.9949703294
 C          6.4013114699       -0.0376008771        1.2128580502
 H          5.9738855401       -0.9834938568        1.5050782115
 H          7.6406540199        0.2063909553        2.9366509999
 H          8.5809287896        2.3543405744        2.1712924471
 H          7.8773679694        3.3214737215        0.0143102558
 H          6.2078694796        2.1024361594       -1.3919698726
 H          3.4513127098        0.8009396414        0.4340380691
 H          2.7706007100       -0.8468596728       -2.7080016587
 H          0.6219560802       -1.9943367438       -3.1607309872
 H         -1.1667363698       -1.9895475118       -1.4641328872
 C         -1.1181553599       -0.8507731485        1.0152977013
 H         -0.7373968800       -0.2753614473        1.8700746106
 C         -1.4091099897       -2.2629749179        1.4858543132
 C         -0.4373991696       -2.9321364666        2.4085950641
 C         -1.7779986997       -2.4967457161        2.9183496335
 H         -2.5166802896       -3.2513005359        3.1430731845
 H         -1.8210453698       -1.6362892552        3.5706159424
 H         -0.2513026895       -3.9876066167        2.2826233955
 H          0.4302047003       -2.3679278460        2.7163901233
 H         -1.8992055496       -2.8736804790        0.7399082440
 O         -3.3057648098       -1.8501206311       -0.7371716674
