  62
        -98.93254026
 C          2.7405754402        0.1936770017       -0.4011818096
 C          2.7927398304       -0.7543868284        0.6528962003
 C          2.4273631308       -2.1419212085        0.3339479500
 C          2.0794139811       -2.4502902185       -0.9265717701
 C          1.6807533216       -3.7874671585       -1.5008796703
 C          0.7711741217       -4.6859721489       -0.6552419305
 C         -0.2948655686       -3.9460100893        0.1662652994
 H         -0.3655066189       -2.9026470493       -0.1499816405
 H         -1.2668018584       -4.4061823296       -0.0242202808
 C         -0.0351057888       -4.0087981894        1.6733057794
 H         -0.9692689589       -3.7959501098        2.1983373393
 H          0.2669358615       -5.0252298194        1.9371971394
 C          1.0093406708       -3.0251160492        2.1966343597
 H          1.1495466107       -3.2154205493        3.2637356697
 H          0.6320656205       -2.0027954593        2.0975369898
 C          2.3792194509       -3.0861322087        1.5003393099
 H          2.6306125213       -4.1029254586        1.2085663598
 H          3.1336113707       -2.7282190985        2.2063648201
 H          1.3790587118       -5.2935183988        0.0140416495
 H          0.2831099921       -5.3738276189       -1.3484044707
 H          1.1821073617       -3.5500927785       -2.4441681003
 H          2.5949282918       -4.3360759282       -1.7488832002
 O          2.0960108610       -1.5229439583       -1.9234352699
 C          2.3749257205       -0.1796740183       -1.6931362097
 O          2.2846010805        0.5208594618       -2.7192108897
 O          3.1368708801       -0.4423032585        1.8253076003
 C          2.9517774097        1.6371666017        0.0261814406
 C          1.7639565995        2.0632860012        0.8573925005
 C          1.9039649291        2.8737969611        1.9766533806
 C          0.7938056289        3.2372818107        2.7197531405
 C         -0.4669452409        2.7847639704        2.3767217702
 C         -0.6143525805        1.9530262005        1.2703500101
 C          0.4952172097        1.6229910109        0.5095377502
 H          0.3709553100        0.9953327410       -0.3603539899
 N         -1.8664311103        1.4060375901        0.9502241699
 S         -2.1286754899        0.6303927302       -0.5192964403
 O         -1.3783940495       -0.5987659995       -0.5388371503
 O         -1.9154914500        1.5484591004       -1.6174875001
 C         -3.8678472198        0.2755515797       -0.3593189006
 C         -4.2566389395       -0.9062921805        0.2415161492
 C         -5.6092350795       -1.1682647909        0.3925649490
 C         -6.5452947497       -0.2480606812       -0.0553120510
 C         -6.1404431999        0.9331049890       -0.6589712208
 C         -4.7893157400        1.2006148295       -0.8131113806
 H         -4.4284182002        2.0984746296       -1.2887149904
 H         -6.8703216501        1.6445682089       -1.0101725808
 H         -7.5972193296       -0.4544251315        0.0631410888
 H         -5.9272298893       -2.0874189111        0.8574803488
 H         -3.4915959794       -1.5931095703        0.5650806892
 H         -2.6537172105        1.9609262598        1.2527290398
 H         -1.3287772811        3.0539668200        2.9672777001
 H          0.9129396486        3.8723277106        3.5844501206
 H          2.8888427189        3.2026338914        2.2738193808
 H          3.8301264396        1.6333271019        0.6934559507
 C          3.2416435996        2.6047823919       -1.1079130493
 C          2.1773871395        3.4420856217       -1.7447708893
 C          3.2156519891        4.0873221219       -0.8792932191
 H          3.9755003590        4.6903900322       -1.3524740489
 H          2.9039286689        4.4436064317        0.0903774009
 H          2.2215339296        3.5778394718       -2.8144499693
 H          1.1691795794        3.3521824213       -1.3677109495
 H          4.0113315898        2.2277317122       -1.7724416792
