  62
        -98.94460991
 C          1.6262823984        1.4585432599        0.1909907660
 C          1.8048813313        0.3894585520        1.1085250149
 C          3.0413087042       -0.3876680721        0.9743872689
 C          3.9084428973       -0.0895577844       -0.0104546384
 C          5.2396736482       -0.7485526822       -0.2527305817
 C          5.1650309993       -2.0605186827       -1.0454678648
 C          4.5997256804       -3.2538618647       -0.2746017611
 H          4.8057774901       -4.1465472429       -0.8683066291
 H          5.1341360116       -3.3610141649        0.6698457886
 C          3.0900273122       -3.1737668000       -0.0092425545
 H          2.6503755192       -2.4242400200       -0.6718465792
 H          2.6265606338       -4.1332309617       -0.2496007861
 C          2.7191286720       -2.8400220293        1.4357298854
 H          3.0669895297       -3.6376327119        2.0959615988
 H          1.6300164270       -2.7931570415        1.5166878435
 C          3.2877034171       -1.5076680248        1.9407278793
 H          4.3558513907       -1.6061762298        2.1361061536
 H          2.7841715296       -1.2536441832        2.8770334660
 H          6.1815315142       -2.3074417453       -1.3601709995
 H          4.5703490914       -1.8920015792       -1.9460204427
 H          5.8370737875       -0.0349916115       -0.8242910804
 H          5.7349759401       -0.9283572901        0.7022224137
 O          3.6728050839        0.8997575512       -0.9090286174
 C          2.5402439135        1.7001044588       -0.8359586355
 O          2.4892831729        2.5627308734       -1.7333532155
 O          0.9748963183        0.1134845615        2.0168261975
 C          0.4070208275        2.3401024167        0.4030162517
 C         -0.7383709084        1.9682650487       -0.5074561556
 C         -0.6591003956        2.1229536521       -1.8878628277
 C         -1.7363502455        1.7930393888       -2.6894193451
 C         -2.9024514426        1.2908257649       -2.1372890172
 C         -2.9885982997        1.1252783856       -0.7607616765
 C         -1.9119466235        1.4744773367        0.0432829269
 H         -1.9958246261        1.3426754110        1.1116095864
 N         -4.1560197306        0.6155136715       -0.1642987612
 S         -4.0115742207       -0.6470994521        0.9292219739
 O         -5.3491447639       -1.1877492962        1.0359417321
 O         -3.4191291504       -0.1760057673        2.1531348479
 C         -2.9534147213       -1.8100764420        0.0892436987
 C         -3.5522627258       -2.6903574327       -0.7922963065
 C         -2.7573831654       -3.5415179263       -1.5410789104
 C         -1.3780745295       -3.4853464543       -1.4095141625
 C         -0.7938473108       -2.5954921587       -0.5224363554
 C         -1.5827439239       -1.7486762467        0.2412154404
 H         -1.1424178548       -1.0585110794        0.9443629102
 H          0.2783015407       -2.5467852758       -0.4192277785
 H         -0.7530772197       -4.1377597249       -1.9986084704
 H         -3.2113673020       -4.2385590616       -2.2267764045
 H         -4.6281810543       -2.6999132506       -0.8604987167
 H         -4.9002853519        0.4232908586       -0.8200557549
 H         -3.7404197404        1.0311824563       -2.7661875392
 H         -1.6654179096        1.9220654451       -3.7587882250
 H          0.2561279343        2.4943944078       -2.3224726419
 H          0.0834461403        2.1318635724        1.4327166726
 C          0.7154489689        3.8212692574        0.2938078831
 C         -0.2086951050        4.8019319034        0.9481740186
 C          1.1603522943        4.5696330698        1.5124185065
 H          1.9056380865        5.3424550788        1.3985477978
 H          1.2434629970        4.0169684872        2.4372660310
 H         -0.4065810796        5.7368204178        0.4469160698
 H         -1.0544619986        4.4063233241        1.4908786182
 H          1.1617606970        4.1016847429       -0.6509912003
