  62
        -98.94696122
 C         -1.2698824562       -0.7388008977        0.6292158535
 C         -2.1412750074       -0.7242563787       -0.4859768834
 C         -2.8800874381        0.5262268187       -0.7013119884
 C         -2.6435740172        1.5894909341        0.0874069960
 C         -3.2926187855        2.9420115913       -0.0299520003
 C         -4.6603331856        3.0417597296        0.6599255051
 C         -5.8014289988        2.3101163905       -0.0480038177
 H         -6.7315330403        2.6421235127        0.4174649736
 H         -5.8330695338        2.6164727006       -1.0940342545
 C         -5.7238535261        0.7796203683        0.0404066614
 H         -5.0371330863        0.4956231550        0.8409830145
 H         -6.7058671259        0.3799870966        0.3029093039
 C         -5.2856479027        0.0916203823       -1.2524815945
 H         -5.2302703121       -0.9839373177       -1.0668476157
 H         -6.0335531676        0.2614361637       -2.0301178153
 C         -3.9199899957        0.5508447014       -1.7806828159
 H         -3.6009262600       -0.1430700058       -2.5625153106
 H         -3.9977621362        1.5489356057       -2.2119781056
 H         -4.9178789181        4.1017852702        0.7187999454
 H         -4.5639800974        2.6655917678        1.6809800362
 H         -2.6124353070        3.6540510028        0.4429406545
 H         -3.3917794347        3.2088861493       -1.0827048430
 O         -1.7418685232        1.5587877513        1.1038551819
 C         -1.0430843965        0.4001162590        1.4012372796
 O         -0.2566766741        0.5117933777        2.3647851621
 H          1.3365348659       -0.2832314584        0.0819898390
 C          1.3664326302       -1.1851518755       -0.5085458061
 C          0.5005698319       -2.2244478807       -0.1890592340
 C          0.5419561501       -3.3847326439       -0.9482577975
 C          1.4066742722       -3.4763292323       -2.0265155115
 C          2.2335133717       -2.4230546845       -2.3690555300
 C          2.2127889281       -1.2620658361       -1.6005716481
 N          3.0572523635       -0.1903384106       -1.9057963668
 S          2.8488336023        1.3588733075       -1.3243895950
 O          1.4578022277        1.7386838065       -1.2359810200
 O          3.6701474370        2.1660142653       -2.2031351487
 C          3.6204099292        1.2974190155        0.2790443451
 C          4.9789810938        1.0438585138        0.3107142489
 C          5.6222363826        0.9740431076        1.5346801147
 C          4.8992377270        1.1562130842        2.7046560160
 C          3.5385477569        1.4132266905        2.6565016727
 C          2.8893525725        1.4875809904        1.4331027439
 H          1.8276432359        1.6755901651        1.3758519797
 H          2.9662193300        1.5497510799        3.5602392095
 H          5.3974206169        1.0983231133        3.6595907869
 H          6.6811625797        0.7759574927        1.5749736159
 H          5.5031043809        0.9168336523       -0.6218569811
 H          3.5264789696       -0.2300224888       -2.7967945500
 H          2.8876838508       -2.4909641342       -3.2246326834
 H          1.4248287633       -4.3783330311       -2.6193813617
 H         -0.1131604929       -4.2067904548       -0.7122967680
 C         -0.4583949020       -1.9838151710        0.9522609236
 H          0.1314526256       -1.7386958822        1.8472574431
 C         -1.3596709827       -3.1583639639        1.2631244952
 C         -0.8468259403       -4.2912274189        2.0989197553
 C         -1.8578682303       -3.3405714615        2.6641759103
 H         -2.8698510513       -3.6874909132        2.8099795588
 H         -1.5316055010       -2.6248616266        3.4049799235
 H         -1.1657247344       -5.2943652276        1.8600346149
 H          0.1680800419       -4.2245059459        2.4603468314
 H         -2.0463917522       -3.3849930928        0.4564091294
 O         -2.3019590878       -1.7009325678       -1.2640563923
