  62
        -98.93076452
 C         -2.3049651201       -0.9460420377        0.2916393290
 C         -2.6852247859        0.3710317282        0.6543151204
 C         -4.0442826480        0.8100282741        0.2899656856
 C         -4.8405075690       -0.0389253747       -0.3837476092
 C         -6.2553058722        0.1650360630       -0.8634064768
 C         -6.5733278032        1.5189833790       -1.5161938158
 C         -7.4699242148        2.4126010477       -0.6574917465
 H         -7.9911613001        3.1157378467       -1.3108734054
 H         -8.2279910087        1.7882764374       -0.1801202766
 C         -6.7423852998        3.2279350319        0.4100432510
 H         -6.1687289508        4.0232144786       -0.0708385182
 H         -7.5005588772        3.7064132354        1.0344666871
 C         -5.7975082941        2.4307829518        1.3116742478
 H         -6.2415429239        1.4727259648        1.5795249910
 H         -5.6685521252        2.9922178787        2.2395386556
 C         -4.4042132634        2.2111208145        0.7029627557
 H         -4.2598891718        2.8787725554       -0.1515331425
 H         -3.6361470458        2.4889184792        1.4316999297
 H         -5.6481069477        2.0366414783       -1.7646709840
 H         -7.0948531575        1.3214652077       -2.4541020333
 H         -6.4298220956       -0.6422315410       -1.5782239400
 H         -6.9333000492       -0.0105504344       -0.0244947726
 O         -4.4339263796       -1.2948360861       -0.7175851707
 C         -3.1795387603       -1.7855222078       -0.3973989020
 O         -2.9953233744       -2.9558082721       -0.7858222200
 O         -1.9162970806        1.1555724334        1.2752596274
 C         -0.9096603566       -1.3860861793        0.6955957592
 C          0.0848346865       -1.2734439704       -0.4357028802
 C         -0.0795220031       -1.9731597916       -1.6267662515
 C          0.8723960818       -1.8838578524       -2.6257559706
 C          2.0127083651       -1.1197401933       -2.4500397900
 C          2.1842538365       -0.4145097962       -1.2648859269
 C          1.2157580855       -0.4870408397       -0.2733541328
 H          1.3574656834        0.0771252332        0.6371126243
 N          3.3224045118        0.3807665993       -1.0574420387
 S          3.9636445668        0.4511001474        0.5041943617
 O          3.9422606751       -0.8626141944        1.1064187853
 O          3.2963345142        1.4989521627        1.2353298683
 C          5.6408325657        0.9403806243        0.1468949942
 C          6.6250978393       -0.0267918650        0.0681455497
 C          7.9205327194        0.3587995462       -0.2390971587
 C          8.2074620547        1.6967880814       -0.4641605253
 C          7.2090797360        2.6561486572       -0.3806273240
 C          5.9119878490        2.2778476127       -0.0725227019
 H          5.1058736854        2.9878929008        0.0131703278
 H          7.4365033857        3.6957408529       -0.5529295599
 H          9.2162112731        1.9944308585       -0.7031360831
 H          8.6994163630       -0.3839844206       -0.3011536688
 H          6.3568752377       -1.0534006582        0.2594186503
 H          4.0399382259        0.2315453149       -1.7537323950
 H          2.7612870568       -1.0649151687       -3.2259091667
 H          0.7318155507       -2.4289097310       -3.5470868244
 H         -0.9584001485       -2.5850733043       -1.7589648096
 H         -0.5976521230       -0.6741738008        1.4727530148
 C         -0.8540865209       -2.7851007703        1.2817149823
 C          0.3639414071       -3.1917704470        2.0541341586
 C         -0.9357236978       -2.9666590980        2.7659401857
 H         -1.4679654437       -3.8232443012        3.1515494743
 H         -1.0366349186       -2.0789765064        3.3736980175
 H          0.7232815023       -4.2041309862        1.9499660827
 H          1.1507288506       -2.4602648974        2.1730934364
 H         -1.3283831595       -3.5313096251        0.6577869941
