  62
        -98.94373591
 C         -1.7914874231       -0.3533464554        0.3574485800
 C         -2.6376599664       -0.3074915116       -0.7776938801
 C         -3.8234972585        0.5513754808       -0.6509956996
 C         -4.0125247267        1.2788666352        0.4639745400
 C         -5.1622620157        2.2119339670        0.7304279210
 C         -6.4207816187        1.5128903127        1.2630977321
 C         -7.1883341173        0.6807113673        0.2349337649
 H         -7.3856936742        1.2888746169       -0.6484117048
 H         -8.1533571881        0.4322555335        0.6811715012
 C         -6.4868170465       -0.6203928507       -0.1792283029
 H         -7.2078929342       -1.4408353677       -0.1710597469
 H         -5.7139745353       -0.8663540179        0.5525744284
 C         -5.8563375014       -0.5851257086       -1.5714693982
 H         -6.6384472738       -0.4716876529       -2.3253896353
 H         -5.3568179261       -1.5414257556       -1.7455903045
 C         -4.8229048630        0.5318153355       -1.7679162957
 H         -5.3223363046        1.4968916378       -1.8501175642
 H         -4.2792445848        0.3384899469       -2.6959010697
 H         -7.0890355794        2.2899836011        1.6413956458
 H         -6.1376641466        0.8790868459        2.1066995372
 H         -5.4070233395        2.7622610795       -0.1785636710
 H         -4.8177369981        2.9229096273        1.4846139186
 O         -3.1353303583        1.2631709050        1.5034156201
 C         -2.0190726673        0.4454314685        1.4800419903
 O         -1.3080733226        0.5213172144        2.5040847685
 O         -2.4303097068       -0.9453770143       -1.8410427498
 C         -0.5446486663       -1.2236735861        0.3844781777
 C          0.5012809297       -0.5891664189       -0.4990342169
 C          0.7771521330       -1.0180990535       -1.7903609407
 C          1.7404730112       -0.3756257719       -2.5497592411
 C          2.4559048796        0.6901396389       -2.0349772400
 C          2.1880329261        1.1232365982       -0.7426329900
 C          1.2149824665        0.4880936745        0.0121502176
 H          0.9971647561        0.8317316780        1.0157478023
 N          2.9608734619        2.1705428654       -0.1921777163
 S          4.5962184332        1.8019436240       -0.0635227953
 O          5.1003612813        2.6165315002        1.0192503224
 O          5.2256418975        1.9927939462       -1.3455104848
 C          4.6100373270        0.0723355737        0.3739281061
 C          4.2410056008       -0.2761485539        1.6579660329
 C          4.1361712428       -1.6182675122        1.9846853448
 C          4.3901619896       -2.5837686339        1.0224625951
 C          4.7640448682       -2.2176147896       -0.2610507081
 C          4.8740323662       -0.8768525459       -0.5925682308
 H          5.1595298093       -0.5495776790       -1.5784927188
 H          4.9613482409       -2.9712572240       -1.0059987648
 H          4.2962008511       -3.6280820590        1.2761607282
 H          3.8471952308       -1.9050212461        2.9833496384
 H          4.0499789372        0.5021787027        2.3799172144
 H          2.6134739099        2.4812795280        0.7045848610
 H          3.2230797826        1.1893112742       -2.6047981585
 H          1.9402431821       -0.7136406039       -3.5550175982
 H          0.2241159311       -1.8435176294       -2.2060118260
 H         -0.1747795665       -1.1774332688        1.4178403983
 C         -0.8318174555       -2.6691330149        0.0398708636
 C          0.2144922880       -3.6996654466        0.3380692616
 C         -1.0456086556       -3.6542279965        1.1476693399
 H         -1.7785896732       -4.4345571620        1.0072552252
 H         -0.9902372995       -3.2872289183        2.1624001012
 H          0.3496875717       -4.5142688883       -0.3563130981
 H          1.1280106694       -3.3563345948        0.8001799469
 H         -1.4286903889       -2.7902638314       -0.8546376640
