  62
        -98.94039444
 C         -2.5724249704       -1.2753909918        0.1399931271
 C         -3.3815604531       -0.5589788678        1.0612859318
 C         -4.2894434947        0.4418362196        0.4925376136
 C         -4.3407125711        0.6105150712       -0.8407454561
 C         -5.2271062443        1.5758540390       -1.5796418656
 C         -4.6587633552        2.9989686348       -1.6683309536
 C         -4.6870570523        3.7935671429       -0.3619881209
 H         -5.6938696521        3.7670153933        0.0558140238
 H         -4.4666321426        4.8325286785       -0.6150400546
 C         -3.6773397124        3.3177021093        0.6920527735
 H         -3.1604730993        4.1810896824        1.1168638307
 H         -2.9174441058        2.6941520127        0.2148697973
 C         -4.2934089108        2.5415896793        1.8563067000
 H         -4.9569854359        3.1977493793        2.4237268712
 H         -3.4857277952        2.2222676505        2.5198254941
 C         -5.0820066351        1.2940019566        1.4368624998
 H         -6.0308729863        1.5819285517        0.9847883374
 H         -5.2845710876        0.6992029286        2.3307584178
 H         -5.2501163273        3.5399374151       -2.4107354031
 H         -3.6323925048        2.9425564700       -2.0386570764
 H         -6.2105571833        1.6037513528       -1.1097272758
 H         -5.3365225905        1.1846827192       -2.5934933028
 O         -3.5751719682       -0.1166821943       -1.6950628787
 C         -2.6529814647       -1.0509150773       -1.2345908984
 O         -1.9970269698       -1.5871146276       -2.1485848502
 O         -3.3480855111       -0.7553340124        2.3048767239
 C         -1.6099816023       -2.2888545095        0.7335046387
 C         -0.2501644796       -1.6794694896        0.9644121344
 C          0.3999342357       -1.8167658706        2.1849573039
 C          1.6534103397       -1.2629598821        2.3805686539
 C          2.2806690496       -0.5592596351        1.3681932934
 C          1.6399396908       -0.4166529175        0.1440813905
 C          0.3852434568       -0.9765146075       -0.0499287528
 H         -0.1032187341       -0.8742794114       -1.0083561459
 N          2.2574204328        0.3106855972       -0.8883302623
 S          3.8444356863       -0.0716794532       -1.2839180823
 O          4.0057196066        0.3454841374       -2.6593163215
 O          4.1428476204       -1.4544994932       -0.9912532913
 C          4.8098340717        0.9984486031       -0.2383827833
 C          4.5501449306        2.3543374644       -0.2814433611
 C          5.2991651952        3.2046068129        0.5160727415
 C          6.2914691759        2.6880039535        1.3361237418
 C          6.5420172904        1.3247319938        1.3654728339
 C          5.7955357213        0.4683817770        0.5707651789
 H          5.9507674872       -0.5987205388        0.5648744796
 H          7.3138819651        0.9253057317        2.0034523675
 H          6.8727388562        3.3523197827        1.9558809294
 H          5.1067277019        4.2652441989        0.4959350631
 H          3.7720206175        2.7147580860       -0.9335888210
 H          1.6910859720        0.3772799313       -1.7221755741
 H          3.2558056554       -0.1245646867        1.5151237240
 H          2.1467647455       -1.3770727393        3.3335689762
 H         -0.0883238550       -2.3528689337        2.9854799782
 H         -2.0345127126       -2.5283252721        1.7213562908
 C         -1.5450651876       -3.5888532620       -0.0571234574
 C         -0.3528850962       -4.0235294365       -0.8506818025
 C         -0.6927555618       -4.7236470466        0.4288656054
 H         -1.0891082709       -5.7265397470        0.3830708712
 H         -0.0550963992       -4.5365646767        1.2796857272
 H         -0.5342397005       -4.5277832592       -1.7878102403
 H          0.5176301520       -3.3856936760       -0.8688684971
 H         -2.5124084514       -3.8532891463       -0.4728408929
