  62
        -98.94023409
 C         -2.3621958900       -0.0695888342       -0.2670265588
 C         -1.6381538412       -0.5154386517        0.8645499966
 C         -1.3724956160       -1.9589019810        0.9226256136
 C         -1.7095738769       -2.7409234119       -0.1183993569
 C         -1.4947937776       -4.2267599992       -0.2202291800
 C         -0.0765580019       -4.6164973479       -0.6586088345
 C          0.9965665747       -4.4818476275        0.4220876144
 H          0.6617057613       -4.9861024043        1.3297757069
 H          1.8809369381       -5.0104752557        0.0605312335
 C          1.3910012232       -3.0350190327        0.7497849829
 H          2.4800081323       -2.9633890102        0.8190905980
 H          1.0859035832       -2.3750785355       -0.0663199603
 C          0.8212851424       -2.5047561616        2.0644895726
 H          1.2158363057       -3.0937080653        2.8960054359
 H          1.1640533791       -1.4762474081        2.1866218396
 C         -0.7101957722       -2.5130698386        2.1501350390
 H         -1.0056289965       -1.8830598743        2.9930465622
 H         -1.0666896594       -3.5273930384        2.3325488661
 H         -0.1089953231       -5.6599340003       -0.9816978945
 H          0.2019318507       -4.0072015021       -1.5223888036
 H         -1.7258883158       -4.7006775668        0.7345203990
 H         -2.2007687610       -4.5909862623       -0.9698759139
 O         -2.3235021163       -2.2567160655       -1.2309637176
 C         -2.6720218181       -0.9215045695       -1.3260259221
 O         -3.2542990102       -0.6155850924       -2.3894655706
 O         -1.2394355206        0.2434439163        1.7846252782
 C         -2.7565133598        1.3980130104       -0.4111577811
 C         -1.4990857225        2.2262548639       -0.2882144095
 C         -1.2237787449        3.2662886656        0.5900370033
 C          0.0110300801        3.8973333242        0.5752462721
 C          1.0160409335        3.4893582497       -0.2800255647
 C          0.7572040476        2.4444372713       -1.1597401918
 C         -0.4948961042        1.8591493553       -1.1831623900
 H         -0.6769501788        1.0564356404       -1.8836627420
 N          1.7535451419        1.9192035943       -2.0129121403
 S          2.2430467940        0.3548598171       -1.6465847519
 O          3.3042597772        0.0578269497       -2.5848744871
 O          1.1090324469       -0.5317382609       -1.6629961339
 C          2.9297788983        0.5002146259       -0.0061914041
 C          2.0832783412        0.6845589391        1.0691844336
 C          2.6371009607        0.8951488375        2.3236988115
 C          4.0135842275        0.9135208984        2.4826839503
 C          4.8494307427        0.7226384900        1.3923545292
 C          4.3044502684        0.5226939277        0.1347332702
 H          4.9123630438        0.3758001098       -0.7434444720
 H          5.9202264197        0.7338926370        1.5170167378
 H          4.4355806032        1.0765650584        3.4617242057
 H          1.9784578194        1.0415525533        3.1650815885
 H          1.0137417966        0.6546325209        0.9301115539
 H          2.5727226285        2.5075189988       -2.0897387136
 H          1.9874593431        3.9599606714       -0.2636876984
 H          0.1972540370        4.7056881540        1.2657187926
 H         -1.9501119403        3.5931582361        1.3112344567
 H         -3.0892720498        1.4997171467       -1.4582534127
 C         -3.9895519797        1.6542651399        0.4413371461
 C         -3.9856849682        2.0122335910        1.8942114395
 C         -4.4820351248        3.0009947626        0.8799506015
 H         -5.5462260886        3.1800302433        0.8322529838
 H         -3.8899422781        3.8706173702        0.6479482233
 H         -4.7125962797        1.5263831669        2.5292743622
 H         -3.0325712443        2.1580815196        2.3747159055
 H         -4.7654138757        0.9535578637        0.1371837295
