  62
        -98.93860849
 C         -1.6504722554       -1.0501412130       -0.6336019366
 C         -1.6271663095        0.1572332628        0.1032978299
 C         -2.8921881378        0.5486019096        0.7557217953
 C         -3.9656201874       -0.2520209981        0.6432524822
 C         -5.3477870292       -0.0164498150        1.1867970828
 C         -6.2398897738        0.6607418643        0.1325654219
 C         -6.1673610611        2.1870517102        0.1118762965
 H         -6.7360803191        2.5276219118       -0.7563880246
 H         -6.6615865726        2.5816370853        1.0021567829
 C         -4.7556481850        2.7742948539        0.0360129968
 H         -4.1608917614        2.2107038230       -0.6848903656
 H         -4.8379933265        3.7958734600       -0.3399928285
 C         -4.0398343803        2.8024906996        1.3948679222
 H         -4.7649877242        2.6044344204        2.1840531354
 H         -3.6507168415        3.8062064317        1.5785590035
 C         -2.8527447190        1.8370017508        1.5316001723
 H         -1.9373985364        2.3348636839        1.1960192152
 H         -2.7022567144        1.6011813853        2.5908893870
 H         -5.9594620180        0.2647693301       -0.8467570614
 H         -7.2774161909        0.3741599263        0.3157912651
 H         -5.7637707531       -1.0002744527        1.4140500261
 H         -5.3077004166        0.5661532906        2.1023866980
 O         -3.9387854372       -1.4170626721       -0.0609156983
 C         -2.7951059817       -1.8462139005       -0.7055706936
 O         -2.9190579496       -2.9350948298       -1.3020586512
 H          1.9894684066       -0.4636201367       -0.5401762220
 C          1.7370787115       -1.3510328812        0.0112469536
 C          0.5699023599       -2.0378196054       -0.2782185929
 C          0.2723730880       -3.1882877267        0.4490104454
 C          1.1264737355       -3.6366724974        1.4373829499
 C          2.2845825286       -2.9372499276        1.7339735851
 C          2.5858308933       -1.7841080410        1.0217066506
 N          3.7585534523       -1.0524845043        1.2817013477
 S          3.6131641541        0.5973504834        1.5875284229
 O          4.8529092925        0.9395068629        2.2560779002
 O          2.4038103135        0.8905071046        2.3194051259
 C          3.6075104499        1.3572677812       -0.0211531551
 C          2.4785534916        2.0069511067       -0.4797529859
 C          2.5109879435        2.5839372832       -1.7404278408
 C          3.6600945002        2.5025710729       -2.5119236708
 C          4.7854560922        1.8484510163       -2.0328272387
 C          4.7622756878        1.2703893968       -0.7740833640
 H          5.6150014991        0.7593127835       -0.3592551338
 H          5.6764747192        1.7864035490       -2.6365425936
 H          3.6761800013        2.9506524434       -3.4931994194
 H          1.6328913849        3.0870603260       -2.1140124704
 H          1.5909482836        2.0212024721        0.1342195132
 H          4.3595008095       -1.4761533455        1.9752719855
 H          2.9483598324       -3.2812145421        2.5132434009
 H          0.8873006125       -4.5338187120        1.9887159482
 H         -0.6409834499       -3.7232770937        0.2263380090
 C         -0.4051232778       -1.5728300444       -1.3336451800
 H         -0.7309193924       -2.4570456792       -1.8991976287
 C          0.1730765344       -0.5587589725       -2.2972648896
 C          1.1812433981       -0.9986855081       -3.3147801208
 C         -0.2030079497       -0.6194461755       -3.7456586957
 H         -0.3422800136        0.3079958380       -4.2802682387
 H         -0.8759616882       -1.4060102790       -4.0552923154
 H          1.4478604686       -2.0445744429       -3.3312142931
 H          1.9962152522       -0.3316069093       -3.5514235605
 H          0.2949987106        0.4232091558       -1.8585474788
 O         -0.6118542027        0.8936585630        0.2067202838
