  62
        -98.94535345
 C          2.6441490811        1.0857247088        0.2842390890
 C          2.5548464706        0.3160962989       -0.9013056010
 C          3.1995201003       -1.0044877213       -0.8561968111
 C          3.8277896104       -1.3950608515        0.2676254288
 C          4.4722054201       -2.7353780116        0.4693580687
 C          3.4828728299       -3.7396242414        1.0773362989
 C          2.1323831597       -3.7888485310        0.3614978992
 H          1.6146663200       -2.8355363609        0.4973753793
 H          1.5261479696       -4.5503852508        0.8575625593
 C          2.2196699994       -4.1029305511       -1.1385312108
 H          1.4547064291       -4.8423727809       -1.3845906807
 H          3.1889688692       -4.5474777513       -1.3680591410
 C          1.9835830895       -2.8998448710       -2.0539330708
 H          1.0533876597       -2.3988178007       -1.7689713506
 H          1.8510865092       -3.2712464610       -3.0737730208
 C          3.1093053698       -1.8578031113       -2.0894446010
 H          2.8973152298       -1.1707452213       -2.9138332710
 H          4.0618951896       -2.3529623916       -2.2886273212
 H          3.3069204802       -3.4657430613        2.1202453389
 H          3.9401037896       -4.7304236315        1.0588831588
 H          5.3157339302       -2.6128191019        1.1507017785
 H          4.8388020798       -3.1037402718       -0.4865050014
 O          3.9013263308       -0.6229766115        1.3823946588
 C          3.2933088812        0.6220187687        1.4270620589
 O          3.3954594215        1.2059663187        2.5257426088
 O          1.9673857605        0.7084994390       -1.9423637209
 C          1.9651913714        2.4425645490        0.3542611491
 C          0.4873898213        2.2706055394        0.0956550494
 C         -0.2346916486        3.0450132396       -0.8017643704
 C         -1.5812920187        2.8003057700       -1.0117808402
 C         -2.2358646389        1.7897584102       -0.3322674800
 C         -1.5253957589        1.0163197500        0.5768002899
 C         -0.1798146388        1.2673764296        0.7885649896
 H          0.3742035512        0.6594490295        1.4951350395
 N         -2.1848055490       -0.0118361098        1.2800914000
 S         -2.9264031796       -1.2045832796        0.3520383302
 O         -2.9781185897       -2.3704773796        1.2080050702
 O         -2.2691591999       -1.3717785998       -0.9232568300
 C         -4.5768791394       -0.5795717692        0.1195397205
 C         -5.3284158491       -0.2992850490        1.2440317007
 C         -6.6135296590        0.1934380614        1.0837219409
 C         -7.1231638192        0.3933933915       -0.1908058890
 C         -6.3572541495        0.1029927613       -1.3095058891
 C         -5.0701426896       -0.3890050291       -1.1561849394
 H         -4.4342819299       -0.6217603793       -1.9955495395
 H         -6.7551520497        0.2586479514       -2.2993989691
 H         -8.1232135192        0.7783653118       -0.3130351588
 H         -7.2120354588        0.4206200515        1.9511441110
 H         -4.8946962290       -0.4722211991        2.2147808006
 H         -1.6045332590       -0.4442547100        1.9853754699
 H         -3.2816459890        1.5910294104       -0.5005084498
 H         -2.1280828787        3.4041525601       -1.7197489001
 H          0.2595447215        3.8311013195       -1.3483317305
 H          2.0938518217        2.7955464290        1.3880564991
 C          2.6389226915        3.4212689388       -0.5838723010
 C          2.6259612520        4.8882909988       -0.2793262510
 C          3.8943039818        4.1038553385       -0.1338097113
 H          4.6840324917        4.2570846483       -0.8538033715
 H          4.2496732619        3.8801783584        0.8618193886
 H          2.5482274420        5.5848363189       -1.1003346310
 H          2.1229633322        5.2075703290        0.6208275791
 H          2.5829593912        3.1091883088       -1.6202531510
