  62
        -98.93933054
 C         -1.9327544896       -0.8755834709        0.2511334095
 C         -2.2424053800        0.1951706493        1.1267255591
 C         -2.6806398402        1.4470837290        0.4974293286
 C         -2.7106816300        1.5295600286       -0.8449151114
 C         -3.1830441801        2.7233510882       -1.6221517619
 C         -4.6882161900        2.6388826078       -1.9129438222
 C         -5.5382002302        2.3206784680       -0.6829334323
 H         -6.5828539901        2.3166358276       -1.0009523525
 H         -5.3026639600        1.3109876881       -0.3389113019
 C         -5.3611487506        3.3046941884        0.4817411575
 H         -6.3461601608        3.5656906183        0.8740066872
 H         -4.9002516108        4.2253410584        0.1223813073
 C         -4.5459901507        2.7564031689        1.6543853178
 H         -4.6599068511        3.4412007092        2.4988978676
 H         -4.9496171706        1.7882798389        1.9615657380
 C         -3.0419168707        2.5919042392        1.4016742382
 H         -2.6270202808        3.5267914492        1.0181233079
 H         -2.5629506108        2.3752705996        2.3614846883
 H         -4.8529870297        1.8549504075       -2.6556014620
 H         -5.0094157101        3.5889316076       -2.3435251526
 H         -2.9596893904        3.6269472884       -1.0579850022
 H         -2.6383642799        2.7530509080       -2.5672970418
 O         -2.3509454196        0.5029503784       -1.6547824710
 C         -1.9381736694       -0.7171009114       -1.1354492106
 O         -1.6165063990       -1.5482660816       -2.0048671302
 H          0.6811718903       -0.6309437302        0.5280447899
 C          0.8660812306       -1.6245377503        0.1436162203
 C         -0.1383486292       -2.5825239305        0.2209358604
 C          0.1153503512       -3.8516675806       -0.2798875292
 C          1.3453703013       -4.1451485005       -0.8444618688
 C          2.3409478811       -3.1901588303       -0.9182992989
 C          2.0923656307       -1.9106584002       -0.4293681694
 N          3.0660831705       -0.9045314100       -0.5408776795
 S          3.0010169100        0.4525719503        0.4496133400
 O          2.8964427598        0.0611637907        1.8386109101
 O          1.9817050699        1.3449585099       -0.0460708704
 C          4.6135018399        1.1464534405        0.1379924101
 C          4.8032489400        1.9045322902       -1.0019661401
 C          6.0615139699        2.4258095504       -1.2581309400
 C          7.1035939998        2.1813745410       -0.3758242397
 C          6.8977791897        1.4205266013        0.7651146405
 C          5.6418424298        0.8958012011        1.0268664004
 H          5.4309685498        0.3074758613        1.9053381006
 H          7.7083649296        1.2351902917        1.4512133007
 H          8.0813121797        2.5895846511       -0.5772864096
 H          6.2238739300        3.0208593202       -2.1422871901
 H          3.9606867801        2.0750999898       -1.6519990203
 H          4.0046825806       -1.2595283898       -0.6565358392
 H          3.2964649413       -3.4214548802       -1.3632629087
 H          1.5297814116       -5.1348920606       -1.2339956285
 H         -0.6527582887       -4.6065498608       -0.2461629991
 C         -1.4376170895       -2.1707148406        0.8687956800
 H         -1.2090453997       -1.8978656802        1.9144110800
 C         -2.4722870192       -3.2842186008        0.9313287301
 C         -3.9393112193       -2.9814071812        0.8795079898
 C         -3.2814116089       -3.6954333814       -0.2608857099
 H         -3.4950360086       -4.7456875215       -0.3960545796
 H         -3.1173802188       -3.1579792016       -1.1812128600
 H         -4.6010622993       -3.5372283511        1.5268568798
 H         -4.2311050695       -1.9508246013        0.7363034594
 H         -2.1737567392       -4.0755167505        1.6123753305
 O         -2.1522912503        0.1069497797        2.3823241591
