  62
        -98.93953405
 C          2.0718943578        0.2304376619       -0.3442651819
 C          2.8818913543       -0.7899594346        0.2138495117
 C          4.2225721924       -0.3701596548        0.6495419113
 C          4.5900647391        0.9197268216        0.5598977040
 C          5.9078135069        1.5004948461        0.9958332582
 C          7.0242379463        1.3680388733       -0.0490368824
 C          7.5785129858       -0.0453046439       -0.2331900618
 H          8.4906976943        0.0435464553       -0.8266167924
 H          7.8605564225       -0.4530333320        0.7380295592
 C          6.6212562324       -1.0134772483       -0.9422209561
 H          5.8408753061       -0.4444387074       -1.4530921919
 H          7.1666088491       -1.5676040146       -1.7096317988
 C          5.9629525905       -2.0416698617       -0.0221052555
 H          6.7266948256       -2.7028712444        0.3930849331
 H          5.2806762322       -2.6499740302       -0.6212915584
 C          5.1620041651       -1.4324331702        1.1360627279
 H          4.5616464662       -2.2237053665        1.5912605136
 H          5.8378484453       -1.0277605841        1.8888896997
 H          6.6526392740        1.7419037029       -1.0060377606
 H          7.8436186617        2.0185653593        0.2655039396
 H          5.7326305700        2.5626912335        1.1799267177
 H          6.2240111369        1.0335816114        1.9290441412
 O          3.7647817580        1.8798030788        0.0622275075
 C          2.5081892348        1.5562001487       -0.4194997566
 O          1.8765602678        2.5262874160       -0.8865897075
 H         -1.5750793408        1.4896369709       -0.8915241465
 C         -1.4538549534        0.9330829479        0.0254828101
 C         -0.3551076598        0.1052571573        0.2011853469
 C         -0.2262443746       -0.5935503943        1.3987108539
 C         -1.1721417651       -0.4544043887        2.3967983952
 C         -2.2729572193        0.3654138399        2.2141178002
 C         -2.4152431955        1.0601695448        1.0199153861
 N         -3.5306833576        1.8923614568        0.7932064316
 S         -4.5461092754        1.4947444757       -0.4778921956
 O         -3.8214161830        1.5590218647       -1.7199868821
 O         -5.6851862368        2.3738915491       -0.3437214979
 C         -5.0343703393       -0.1866835866       -0.1342835302
 C         -6.2060967147       -0.4176463522        0.5596642532
 C         -6.5458633445       -1.7208104708        0.8857590225
 C         -5.7066873397       -2.7641426665        0.5244247159
 C         -4.5317179232       -2.5155344349       -0.1685267170
 C         -4.1895597861       -1.2147751248       -0.5022813690
 H         -3.2873819695       -0.9848353113       -1.0445545187
 H         -3.8774529336       -3.3249266434       -0.4507102403
 H         -5.9693600507       -3.7778024345        0.7828110129
 H         -7.4603178058       -1.9182387132        1.4216542302
 H         -6.8301813892        0.4231803571        0.8162831524
 H         -4.0840148084        2.0613860654        1.6220240188
 H         -3.0137043276        0.4717180772        2.9924071249
 H         -1.0568604653       -0.9962248403        3.3231217856
 H          0.6205749195       -1.2491572334        1.5315428944
 C          0.6765384287       -0.0225902660       -0.8910852498
 H          0.4956198257        0.7949837151       -1.6070480415
 C          0.5656356971       -1.3362475607       -1.6570189765
 C         -0.3912856871       -2.4238879007       -1.2790028609
 C         -0.6492273285       -1.5942962393       -2.4985738737
 H         -0.5195833939       -2.0439896637       -3.4715117421
 H         -1.4401990953       -0.8581410136       -2.4623777766
 H         -0.0624016378       -3.4436006854       -1.4085385203
 H         -1.0175611660       -2.2741381508       -0.4134064147
 H          1.5164786566       -1.6539523558       -2.0698853916
 O          2.5267034019       -1.9876164245        0.3530738630
