  62
        -98.94285057
 C          2.0941734705        1.5102320368        0.1165704196
 C          1.7126403522        0.3720729830       -0.6381269933
 C          2.7566869434       -0.6513250601       -0.8207962782
 C          3.9801425766       -0.4567074334       -0.2988228647
 C          5.1141252791       -1.4368044841       -0.3725540310
 C          5.1163213345       -2.3736421918        0.8436013513
 C          3.7556582251       -3.0047437558        1.1394437844
 H          3.8860407483       -3.6694256038        1.9961839016
 H          3.0573959279       -2.2216998523        1.4441863226
 C          3.1535475044       -3.7920300313       -0.0325229318
 H          3.9337232257       -4.0332942533       -0.7555369816
 H          2.7613389170       -4.7375803561        0.3474748766
 C          1.9994419421       -3.0853293251       -0.7461115549
 H          1.5160617377       -3.8128666476       -1.4034873674
 H          1.2594182314       -2.7577776675       -0.0117195862
 C          2.3870201944       -1.8771438033       -1.6078687649
 H          3.1923351600       -2.1537114613       -2.2915757729
 H          1.5131598414       -1.5956337289       -2.2026294733
 H          5.8551132886       -3.1589114880        0.6728209965
 H          5.4266621726       -1.8010266099        1.7208425037
 H          5.0304831871       -2.0152724181       -1.2905328551
 H          6.0513063072       -0.8776816284       -0.3909514064
 O          4.3114081540        0.6519054183        0.4113212639
 C          3.3763587183        1.6426421371        0.6580298650
 O          3.8015362598        2.5798349940        1.3630294144
 O          0.5747141109        0.2033531817       -1.1445404047
 C          1.1183963368        2.6315030708        0.4362796839
 C         -0.1897375308        2.0458235094        0.9046256028
 C         -0.2500463181        1.4456365333        2.1589346739
 C         -1.4220911618        0.8693638225        2.6112014257
 C         -2.5562124507        0.8704721300        1.8181715988
 C         -2.4994843154        1.4501306250        0.5577735751
 C         -1.3254636766        2.0430779278        0.1119621722
 H         -1.2900900872        2.4735637497       -0.8763897793
 N         -3.6362182245        1.4371509066       -0.2660018298
 S         -4.5925399205        0.0669234826       -0.2991062041
 O         -5.2505281900        0.1028607765       -1.5869686251
 O         -5.4684795617        0.0655277231        0.8477231730
 C         -3.4846847435       -1.3285478909       -0.2097623506
 C         -2.5060320942       -1.4551352995       -1.1747568157
 C         -1.6489700235       -2.5411085364       -1.1192138891
 C         -1.7809720190       -3.4754410968       -0.1038734079
 C         -2.7703478737       -3.3353052013        0.8569113776
 C         -3.6326641840       -2.2522682592        0.8050931129
 H         -4.4163454857       -2.1049437647        1.5307275880
 H         -2.8710715834       -4.0640610974        1.6452080281
 H         -1.1075883705       -4.3172939728       -0.0623010998
 H         -0.8751255959       -2.6431358576       -1.8620933263
 H         -2.4138367788       -0.7125075308       -1.9502385527
 H         -3.4703346381        1.7894196977       -1.1971430487
 H         -3.4807083119        0.4330335723        2.1582114236
 H         -1.4550669419        0.4127979775        3.5888257734
 H          0.6398101382        1.4321249711        2.7739267832
 H          1.5716880283        3.1677813180        1.2855931117
 C          0.9492418981        3.6545968441       -0.6773642302
 C          2.1225159179        4.0724650135       -1.5111736538
 C          1.0026056628        3.2941171239       -2.1303867941
 H          0.3379434175        3.8093221503       -2.8091139897
 H          1.1744709203        2.2612439628       -2.3882030733
 H          2.2286170247        5.1166090827       -1.7642581137
 H          3.0619909229        3.5687082068       -1.3356022204
 H          0.2550493459        4.4413301364       -0.3964601756
