  62
        -98.93528587
 C         -2.1069447212       -0.8616594620       -0.4570669103
 C         -3.2233321962       -0.8103866174        0.4141725301
 C         -3.8665024077        0.5008243647        0.6196808020
 C         -3.3472044519        1.5765728288       -0.0002353434
 C         -3.8377556346        2.9996443373        0.0293118256
 C         -5.0844999973        3.2152254423       -0.8439119373
 C         -6.1538405310        2.1336876206       -0.7149633768
 H         -6.9281387448        2.3427147360       -1.4577442338
 H         -5.7164031040        1.1658819212       -0.9664325356
 C         -6.8294059199        2.0460564109        0.6514014693
 H         -7.6261081864        1.3020815504        0.5719968818
 H         -7.2945151735        3.0067138363        0.8833992073
 C         -5.9259498995        1.6492549840        1.8210063888
 H         -5.3183201408        2.4876849404        2.1509415785
 H         -6.5766221437        1.3892142143        2.6610802906
 C         -5.0442987853        0.4316152929        1.5616851118
 H         -4.6335930354        0.0881902124        2.5190243864
 H         -5.6690486781       -0.3950027291        1.2045584514
 H         -4.7637195909        3.2431006695       -1.8880779531
 H         -5.5140784222        4.1874373027       -0.5967238261
 H         -4.0228305534        3.3084532609        1.0538978247
 H         -3.0268119875        3.6181451071       -0.3618334771
 O         -2.2618348469        1.4847262658       -0.8185817051
 C         -1.6134943545        0.2898236670       -1.0690212717
 O         -0.6431869204        0.4033686641       -1.8451716235
 H          0.9812178849       -1.1136821181       -1.2256934008
 C          0.9835187835       -1.6186284906       -0.2718383734
 C         -0.1711482792       -2.2496802927        0.1677700849
 C         -0.1609974831       -2.8560167540        1.4193324688
 C          0.9757639353       -2.8277368998        2.2077018125
 C          2.1223710629       -2.1887156502        1.7698455441
 C          2.1174085956       -1.5720536638        0.5258388176
 N          3.2733742873       -0.8937891714        0.0722635228
 S          3.7850737643        0.3655175056        1.0808828466
 O          4.4253292314       -0.2119622485        2.2361138231
 O          2.6871438200        1.2684990091        1.3548339652
 C          5.0008283043        1.1581508968        0.0475564734
 C          4.5885797634        2.1394156321       -0.8340018763
 C          5.5285504089        2.7360735994       -1.6594576656
 C          6.8562610490        2.3407170742       -1.5919306405
 C          7.2540411055        1.3536621748       -0.7027060417
 C          6.3194036152        0.7534687545        0.1260910299
 H          6.5812607918       -0.0121455560        0.8373625390
 H          8.2873332241        1.0506141751       -0.6525165784
 H          7.5847519447        2.8077023594       -2.2357341521
 H          5.2211409813        3.5047290114       -2.3503060743
 H          3.5473322919        2.4224599989       -0.8478611761
 H          3.1131944359       -0.5124246742       -0.8526262854
 H          3.0067025230       -2.1364892434        2.3837227510
 H          0.9681004621       -3.3022345274        3.1775731080
 H         -1.0625459471       -3.3309455713        1.7795208155
 C         -1.4385766097       -2.2139263684       -0.6516534803
 H         -2.1370964460       -2.9437015256       -0.2212266232
 C         -1.2098047841       -2.5636628620       -2.1076842330
 C         -0.9067606963       -3.9853559148       -2.4718794317
 C         -2.2316628471       -3.3854423605       -2.8322788489
 H         -2.4325096962       -3.1591603995       -3.8686867405
 H         -3.1032646084       -3.7018455061       -2.2781707452
 H         -0.1954595721       -4.1746099151       -3.2609343369
 H         -0.8785562055       -4.7084259747       -1.6708283918
 H         -0.7176619903       -1.7816583536       -2.6709458433
 O         -3.6811011568       -1.8296049941        0.9980511890
