  62
        -98.93829116
 C          2.0728383703        1.0857865253        0.2955121367
 C          2.1241560699        0.1549940798       -0.7718742064
 C          2.3721980024       -1.2425305154       -0.3827776419
 C          2.4896090269       -1.5765792603        0.9133155119
 C          2.7034991003       -2.9625991425        1.4594391018
 C          4.1690371749       -3.4191912127        1.4558114794
 C          4.7434987730       -3.7557114564        0.0790990841
 H          5.6943846794       -4.2657333031        0.2452140463
 H          4.0801848123       -4.4573588142       -0.4274162390
 C          4.9885206456       -2.5364375838       -0.8206269042
 H          4.9905726410       -1.6294955316       -0.2117516630
 H          5.9753544578       -2.6163890923       -1.2818973048
 C          3.9727736191       -2.3684693018       -1.9508623576
 H          4.0489735733       -3.2112021533       -2.6414768797
 H          4.2185038899       -1.4573100852       -2.5020367943
 C          2.5173771611       -2.2554508701       -1.4783416271
 H          1.9025303170       -1.9217954416       -2.3184598027
 H          2.1502953795       -3.2269230385       -1.1465699269
 H          4.7764709374       -2.6416447950        1.9245093753
 H          4.2322430303       -4.3131315681        2.0804990096
 H          2.3482587663       -2.9444366908        2.4921404332
 H          2.0948938309       -3.6722311587        0.8978019279
 O          2.4094438486       -0.6571519843        1.9124153072
 C          2.1935085481        0.6788157471        1.6268387554
 O          2.1423460577        1.4135984356        2.6356395430
 O          1.9818312977        0.4450628365       -1.9871958513
 C          1.7589762298        2.5643939777        0.1237132124
 C          0.2976819132        2.7906366032        0.4239982135
 C         -0.1233171545        3.8629488478        1.2012811698
 C         -1.4633794629        4.0273367410        1.5046055130
 C         -2.4025699724        3.1147086751        1.0602160205
 C         -1.9910232063        2.0402441305        0.2791701911
 C         -0.6523588526        1.8979451291       -0.0508487427
 H         -0.3501319553        1.0591860328       -0.6606230334
 N         -2.9120586561        1.0903830812       -0.1924254916
 S         -2.3962680595       -0.5194544445       -0.2711504145
 O         -1.5943129746       -0.8427576863        0.8878390718
 O         -1.7964290594       -0.7507984288       -1.5604811649
 C         -3.9696270651       -1.3573187557       -0.1909359344
 C         -4.7184530169       -1.4767238451       -1.3467137685
 C         -5.9575761672       -2.0938520735       -1.2811472490
 C         -6.4253278978       -2.5776852007       -0.0682287082
 C         -5.6619454084       -2.4522359666        1.0827570969
 C         -4.4222710566       -1.8345986514        1.0244623426
 H         -3.7895501946       -1.7208076262        1.8903202284
 H         -6.0260414075       -2.8320198878        2.0237259722
 H         -7.3896637214       -3.0581558859       -0.0198767425
 H         -6.5522966870       -2.1956628697       -2.1744599652
 H         -4.3079944025       -1.0937240444       -2.2664388168
 H         -3.8193743944        1.1705779716        0.2467653356
 H         -3.4445255015        3.2273156635        1.3183797463
 H         -1.7773819209        4.8625974564        2.1118963638
 H          0.6102768132        4.5539830972        1.5897723377
 H          2.3354253467        3.0857490233        0.9063844550
 C          2.1847252226        3.1448268613       -1.2154086633
 C          1.2199450958        3.4382075516       -2.3204325004
 C          1.8477479420        4.5655724571       -1.5605914994
 H          2.5973406690        5.1663754551       -2.0527022575
 H          1.2209845153        5.1120113919       -0.8725248285
 H          1.5432272907        3.2395076543       -3.3306146601
 H          0.1761432576        3.2215412141       -2.1516013693
 H          3.1643692232        2.7894831459       -1.5161413875
