  62
        -98.93803252
 C          1.7742729529        1.1213705011       -0.0155020245
 C          2.2540852201       -0.0421089585       -0.6574451991
 C          3.7214769883       -0.2046774884       -0.7284052287
 C          4.5071372630        0.7466002164       -0.1902979982
 C          6.0101822462        0.7772062128       -0.1073099022
 C          6.5630738736       -0.1620793152        0.9769289154
 C          5.9147728257       -1.5432547279        1.0236911481
 H          6.3116422008       -2.0668620207        1.8974635600
 H          4.8395167850       -1.4307781081        1.1746891056
 C          6.1654252760       -2.4215754460       -0.1997299798
 H          5.7219821757       -3.3991520441        0.0064192269
 H          7.2411582905       -2.5648043523       -0.3241822151
 C          5.5878574102       -1.9087409451       -1.5205158672
 H          6.2015354752       -1.1133578552       -1.9348529093
 H          5.6278289159       -2.7354455736       -2.2359983707
 C          4.1294130315       -1.4666901098       -1.4496090001
 H          3.7489846720       -1.3561701427       -2.4726207531
 H          3.5304679449       -2.2718166463       -1.0083027558
 H          7.6387641948       -0.2671843172        0.8262295056
 H          6.4029428625        0.3127539730        1.9479227357
 H          6.2890616552        1.8023078783        0.1463506383
 H          6.4419654054        0.5473669675       -1.0768024996
 O          3.9958280896        1.8524007186        0.4235427949
 C          2.6372036216        2.0710370563        0.5295266995
 O          2.3248484981        3.1236535157        1.1223213957
 O          1.4992377495       -0.9206878758       -1.1522095940
 C          0.2804001329        1.3730582938        0.0956263503
 C         -0.3738256249        0.2271237175        0.8262657298
 C          0.0941227958       -0.0960075462        2.0985035123
 C         -0.4516221724       -1.1478066691        2.8067445915
 C         -1.4833310748       -1.8951998661        2.2655389762
 C         -1.9597680896       -1.5794103577        0.9989599976
 C         -1.4130691721       -0.5160434519        0.2905230079
 H         -1.7865287544       -0.3068789801       -0.6975462015
 N         -2.9940643942       -2.3300765204        0.4306083232
 S         -4.0366471357       -1.7129687777       -0.7061953794
 O         -5.1786168330       -2.6020907839       -0.6549645967
 O         -3.3940078783       -1.5977504287       -1.9912665540
 C         -4.5175567296       -0.0941443946       -0.1263543616
 C         -4.6769856075        0.9166597552       -1.0520212149
 C         -5.0824925447        2.1693981079       -0.6202332698
 C         -5.3204771052        2.3892952483        0.7271983917
 C         -5.1604590701        1.3630065374        1.6453706061
 C         -4.7596056359        0.1073788930        1.2179533835
 H         -4.6326500017       -0.7052217624        1.9140856429
 H         -5.3462734046        1.5368300709        2.6930139285
 H         -5.6319797531        3.3657235283        1.0632196324
 H         -5.2075895959        2.9676892684       -1.3341812340
 H         -4.4744593404        0.7021523269       -2.0891746319
 H         -3.4204763041       -3.0230556859        1.0257929169
 H         -1.9066918303       -2.7239646061        2.8121050898
 H         -0.0737269189       -1.3892633854        3.7887859574
 H          0.9029608606        0.4875272832        2.5175153075
 H          0.1730921603        2.2767619008        0.7130342950
 C         -0.3060504803        1.6484767950       -1.2720565346
 C         -1.5407372649        2.4861823824       -1.4044773844
 C         -0.2128338462        3.0364145251       -1.8283880609
 H         -0.0153354971        3.1574496236       -2.8829679385
 H          0.2549894634        3.7869757028       -1.2078177207
 H         -2.2546259797        2.2265579296       -2.1709460384
 H         -1.9859832051        2.8683466646       -0.4984119156
 H         -0.1711995767        0.8230379556       -1.9621676948
