  62
        -98.94685459
 C         -1.2535902892       -1.2234808198        0.0880381106
 C         -2.0484784389       -0.7431100199        1.1543528308
 C         -2.7057527888        0.5517646102        0.9318095111
 C         -2.4908388689        1.2074871604       -0.2238058688
 C         -3.1389714087        2.5074520205       -0.6012104484
 C         -4.4519452389        2.2736237309       -1.3617469683
 C         -5.3929236789        1.2801862509       -0.6805091784
 H         -6.2975689490        1.2184276411       -1.2892692183
 H         -4.9327637391        0.2895150508       -0.6879009586
 C         -5.7717551987        1.6503161006        0.7602799218
 H         -5.5646223585        2.7060267806        0.9392935119
 H         -6.8465887687        1.5055487308        0.8883830719
 C         -5.0786338786        0.8091876403        1.8338356115
 H         -5.5742494985        1.0012249502        2.7893491616
 H         -5.2074927588       -0.2523170196        1.6072678913
 C         -3.5820301586        1.0816613201        2.0319297113
 H         -3.4192584184        2.1518529500        2.1755966915
 H         -3.2683821185        0.5620602099        2.9424004012
 H         -4.9581614088        3.2334284110       -1.4799196380
 H         -4.2129273791        1.8902556610       -2.3561965984
 H         -3.3284019085        3.0887881704        0.2990525617
 H         -2.4537206388        3.0607770006       -1.2443384884
 O         -1.6893495791        0.7317873505       -1.2089882890
 C         -1.0508842692       -0.4925775696       -1.0838076293
 O         -0.3476024894       -0.8092522295       -2.0588764195
 O         -2.1932626489       -1.3624381901        2.2442187007
 C         -0.5353020693       -2.5525047000        0.2413678602
 C          0.9525947407       -2.3240991201        0.1443108800
 C          1.7927540205       -3.0392753901       -0.6975308602
 C          3.1431064405       -2.7377480303       -0.7629749403
 C          3.6849941908       -1.7276160805        0.0100094698
 C          2.8542345510       -1.0157934105        0.8661449700
 C          1.5044964610       -1.3189002604        0.9302136902
 H          0.8593950011       -0.7572050004        1.5951713904
 N          3.3935812612        0.0231092292        1.6576866402
 S          4.0017944213        1.3411265393        0.8203844803
 O          5.1777383711        0.9292823993        0.0978342101
 O          4.1904617616        2.3731228691        1.8148993805
 C          2.7142760912        1.8146313397       -0.3181035994
 C          2.6628269310        1.2270339300       -1.5659309595
 C          1.6345778609        1.5741412203       -2.4268271393
 C          0.6811413511        2.4967689203       -2.0267021090
 C          0.7425029713        3.0727376301       -0.7672390389
 C          1.7651689514        2.7257254898        0.0999863709
 H          1.8530380316        3.1567777695        1.0847881210
 H         -0.0037481986        3.7866000301       -0.4557724186
 H         -0.1190292690        2.7579161006       -2.7011502288
 H          1.5700302307        1.1131002305       -3.3985896794
 H          3.4238364808        0.5164232399       -1.8441806697
 H          2.7477889514        0.3532711892        2.3617135303
 H          4.7294350308       -1.4666540506       -0.0449683603
 H          3.7824572504       -3.2965944502       -1.4294134805
 H          1.3901741803       -3.8262369299       -1.3135139403
 H         -0.7653064192       -2.8965692401        1.2607134102
 C         -1.0649817196       -3.5684164097       -0.7476255499
 C         -0.9898927497       -5.0325482998       -0.4362983502
 C         -2.3116596196       -4.3273059796       -0.4087999399
 H         -3.0228574198       -4.5297852593       -1.1955314398
 H         -2.7678180895       -4.1301569997        0.5505426302
 H         -0.7957715399       -5.7228230396       -1.2432642004
 H         -0.5501732796       -5.3216067700        0.5062970197
 H         -0.9348526897       -3.2549252195       -1.7771463499
