  62
        -98.93661217
 C          2.3625014297        0.4690405933        0.0399834141
 C          3.4500707582        0.3920843740        0.9409932456
 C          4.4468846183       -0.6577524468        0.6748779121
 C          4.2719211298       -1.4811876460       -0.3730695613
 C          5.1327234413       -2.6415295173       -0.8061748175
 C          6.6547461018       -2.4426390792       -0.7829031838
 C          7.1291647733       -1.0144125060       -1.0885446735
 H          7.8933517887       -1.0536095372       -1.8670963005
 H          6.3005993731       -0.4188014283       -1.4755870914
 C          7.7363058946       -0.3136019623        0.1292901613
 H          8.3811416245       -1.0212945955        0.6549042753
 H          8.3676750727        0.5082733733       -0.2169676646
 C          6.7299615016        0.2749450126        1.1174337339
 H          6.2366884632        1.1427692256        0.6711940212
 H          7.2841156908        0.6348932160        1.9876933860
 C          5.6318091809       -0.6882335429        1.5969500373
 H          6.0188850308       -1.6963964879        1.7228990761
 H          5.2705092149       -0.3298639137        2.5647814689
 H          7.0473194662       -2.7461004688        0.1866185137
 H          7.0733118584       -3.1302403024       -1.5197438866
 H          4.8754138039       -3.5051828768       -0.1861473969
 H          4.8088473752       -2.8693972962       -1.8244719700
 O          3.2007314649       -1.3778415262       -1.2099289536
 C          2.2264247754       -0.4082045030       -1.0343612653
 O          1.3175867057       -0.4337803658       -1.8855471945
 O          3.5772144206        1.1589723163        1.9330255097
 C          1.3036584361        1.5349948597        0.2576608788
 C         -0.0348603041        0.8800158904        0.4917199389
 C         -0.1637510702       -0.0062264140        1.5588201670
 C         -1.3652805072       -0.6374270327        1.8128263360
 C         -2.4670456578       -0.4024551512        1.0078146761
 C         -2.3531742403        0.4849367883       -0.0522395358
 C         -1.1440141334        1.1249094185       -0.3006120486
 H         -1.0730130372        1.8089241630       -1.1317907802
 N         -3.4605483966        0.7198585795       -0.8811783542
 S         -4.9642989362        0.9911401268       -0.1951546929
 O         -5.7033697955        1.7337834981       -1.1926783427
 O         -4.8504392233        1.6058162514        1.1070529698
 C         -5.6716717359       -0.6358343195       -0.0437025988
 C         -5.7161636334       -1.4350055263       -1.1691848597
 C         -6.2769936204       -2.6982404384       -1.0709222361
 C         -6.7837398976       -3.1375667709        0.1431776511
 C         -6.7344055927       -2.3220596532        1.2632301090
 C         -6.1737841737       -1.0575208374        1.1717666277
 H         -6.1092194626       -0.3914223157        2.0175024997
 H         -7.1289928837       -2.6654392744        2.2060338289
 H         -7.2195239049       -4.1214895676        0.2164168603
 H         -6.3163845728       -3.3354713175       -1.9397456361
 H         -5.3136408321       -1.0571889506       -2.0942597499
 H         -3.2797445680        1.3549900545       -1.6443823431
 H         -3.4065412923       -0.8952666090        1.1973170213
 H         -1.4472098020       -1.3226038321        2.6430088861
 H          0.6975881163       -0.1933906173        2.1856343031
 H          1.5954023084        2.0498423078        1.1848663015
 C          1.3142303252        2.5364069215       -0.8774683663
 C          0.7771071639        3.9191992919       -0.6628790560
 C          2.2526991737        3.7020913737       -0.8083405213
 H          2.7358398863        4.0298281472       -1.7166542539
 H          2.8728536958        3.7892829189        0.0717737973
 H          0.2480444641        4.4005217644       -1.4718446315
 H          0.3926008924        4.1586492947        0.3171670867
 H          1.1665564668        2.0732816063       -1.8468444949
