  62
        -98.94444880
 C         -1.7666346477       -0.6687415977        0.0523297794
 C         -2.9438662729       -1.2023921931        0.6297000554
 C         -4.1939955328       -0.9073606578       -0.0787513709
 C         -4.1632608177       -0.1820681708       -1.2117258867
 C         -5.3502660528        0.1764921181       -2.0644936091
 C         -6.1153171523        1.4171524531       -1.5837335831
 C         -6.9462437061        1.2178353425       -0.3155518895
 H         -7.5944115211        2.0908823916       -0.2168238185
 H         -7.5904137554        0.3465995238       -0.4381046828
 C         -6.1163714331        1.0713629448        0.9675073922
 H         -5.1010989097        1.4322212710        0.7865301308
 H         -6.5440421410        1.7001658266        1.7516943185
 C         -6.0452275888       -0.3533848128        1.5170108561
 H         -7.0420088438       -0.6778328232        1.8236798636
 H         -5.4056668269       -0.3475113342        2.4032921470
 C         -5.4784914543       -1.3829062887        0.5305991402
 H         -5.2643400819       -2.3026301171        1.0803610738
 H         -6.2103255013       -1.6018530017       -0.2465520748
 H         -6.7884006928        1.7171514042       -2.3902485587
 H         -5.4008999966        2.2290759804       -1.4285221874
 H         -6.0312924949       -0.6732701917       -2.1201892313
 H         -4.9626156895        0.3780777442       -3.0654471271
 O         -3.0085795991        0.3049582137       -1.7404276922
 C         -1.7861164790        0.0893117579       -1.1180469756
 O         -0.8158379889        0.6099371024       -1.7006222575
 O         -2.9483159274       -1.8920289507        1.6842720834
 C         -0.4345492291       -0.9375269239        0.7278874312
 C          0.2549815958        0.3572525807        1.0773322608
 C         -0.4570325271        1.3284587853        1.7776588899
 C          0.1358732057        2.5252133348        2.1272642334
 C          1.4531803318        2.7800522689        1.7872655498
 C          2.1774705236        1.8148935729        1.0994725392
 C          1.5797365388        0.6089599057        0.7565473824
 H          2.1578699733       -0.1227320194        0.2183371786
 N          3.5289044345        2.0245925397        0.7907064842
 S          4.1802798010        1.4984976135       -0.6585303516
 O          5.4099512553        2.2546789766       -0.7821283337
 O          3.2508906197        1.6211075451       -1.7558017281
 C          4.5950904270       -0.2096994605       -0.3768226575
 C          4.3161774286       -1.1397852815       -1.3582581740
 C          4.6881804897       -2.4600523476       -1.1562756083
 C          5.3289625863       -2.8244428280        0.0182646923
 C          5.6002370633       -1.8777778151        0.9946009561
 C          5.2357258664       -0.5556821709        0.7967000906
 H          5.4338719839        0.2078200011        1.5299228872
 H          6.0958275763       -2.1664313360        1.9073687109
 H          5.6146157494       -3.8529425602        0.1731173188
 H          4.4757455120       -3.1967566716       -1.9150758122
 H          3.8034540175       -0.8139616553       -2.2498822428
 H          3.8853922147        2.9347975008        1.0437426715
 H          1.9164586211        3.7183289571        2.0525052222
 H         -0.4314480035        3.2704055200        2.6645937788
 H         -1.4878432414        1.1313659607        2.0395102638
 H         -0.6877818199       -1.4522045333        1.6672998096
 C          0.4103425981       -1.8669157610       -0.1175684493
 C          1.3878114418       -2.7943414292        0.5388323394
 C          0.1314368959       -3.3383627480       -0.0699711493
 H          0.2024721581       -3.9053725609       -0.9859133835
 H         -0.6580115245       -3.6700918395        0.5885049058
 H          2.3266790928       -2.9892647380        0.0434530255
 H          1.4552669240       -2.7628941951        1.6155863356
 H          0.6711629012       -1.4361804485       -1.0787190465
