  62
        -98.94256336
 C         -2.4250246789       -0.1612110108       -0.2020785139
 C         -1.5329984024       -0.4734373673        0.8493601467
 C         -1.0439348408       -1.8626555416        0.9093016172
 C         -1.4035174765       -2.7248683584       -0.0556199216
 C         -0.9382938493       -4.1441940317       -0.2253490421
 C          0.2901061031       -4.1982067314       -1.1505147139
 C          1.6344339694       -4.0489380473       -0.4405679557
 H          1.8256369163       -4.9405653591        0.1611729268
 H          2.4038992750       -4.0000537901       -1.2147306634
 C          1.7619678969       -2.8096995553        0.4497796215
 H          1.3268926727       -1.9511690652       -0.0653409963
 H          2.8262340272       -2.5966208974        0.5766273409
 C          1.1250090946       -2.9903601140        1.8351272800
 H          1.8394897981       -2.6748382521        2.5979528708
 H          0.9413897674       -4.0524706958        2.0002757240
 C         -0.1695228910       -2.2005811321        2.0860275614
 H         -0.7761334133       -2.7401194372        2.8213696454
 H          0.0789639756       -1.2326641876        2.5302180094
 H          0.1878458197       -3.4046908460       -1.8963462492
 H          0.2895234069       -5.1520074223       -1.6827424466
 H         -1.7574373570       -4.6900189228       -0.6983045915
 H         -0.7226442611       -4.5965694724        0.7385266278
 O         -2.2300146372       -2.3753903568       -1.0794432045
 C         -2.7443026947       -1.0969765625       -1.1874879770
 O         -3.4651164129       -0.9158145278       -2.1907741799
 O         -1.1448632762        0.3652305468        1.7051835504
 C         -2.9402167283        1.2554396412       -0.4061506955
 C         -1.7753195563        2.2075904023       -0.2787198854
 C         -1.7345349658        3.2968061301        0.5807846553
 C         -0.5939551202        4.0782005744        0.6618226933
 C          0.5312509806        3.7753621528       -0.0829414044
 C          0.4975683934        2.6882827576       -0.9499812292
 C         -0.6632526550        1.9434944457       -1.0692980323
 H         -0.6837089349        1.1048401286       -1.7502570550
 N          1.6203076830        2.3252771461       -1.7201324768
 S          2.2452853466        0.7767706818       -1.5918253457
 O          3.3309550332        0.7370737140       -2.5483011890
 O          1.1995840053       -0.1965128793       -1.7761091787
 C          2.9262638036        0.6664572371        0.0549478011
 C          4.2977182681        0.5791175783        0.1986161588
 C          4.8380732518        0.5075132419        1.4722165876
 C          4.0012878268        0.5317846740        2.5777582144
 C          2.6280845935        0.6266061491        2.4159612149
 C          2.0790836239        0.6942217149        1.1444848692
 H          1.0113716454        0.7598716091        1.0043577838
 H          1.9695052688        0.6488420394        3.2697510930
 H          4.4198844915        0.4761849009        3.5703359855
 H          5.9063332089        0.4331688240        1.5977849392
 H          4.9069702824        0.5631185596       -0.6905743072
 H          2.3774758554        2.9936528651       -1.6825227315
 H          1.4298506763        4.3669911390        0.0070829875
 H         -0.5730884998        4.9216505741        1.3350604892
 H         -2.5831904462        3.5193401339        1.2064728061
 H         -3.2824405172        1.2820445003       -1.4545563927
 C         -4.1381832492        1.6303859315        0.4518254929
 C         -5.0843879459        0.5801102111        0.9507388169
 C         -4.2081773943        1.3184914567        1.9152526197
 H         -4.6693354290        2.0434377952        2.5700211601
 H         -3.3718725205        0.7996131624        2.3546507011
 H         -6.1421849171        0.7965393727        0.9409474081
 H         -4.8477714347       -0.4503877589        0.7268893226
 H         -4.5886125122        2.5642993816        0.1295125853
