  62
        -98.94162024
 C          2.1221958739       -0.8379880223       -0.2857413354
 C          2.9775730253       -0.2200954189       -1.2330172843
 C          3.7483316551        0.9362947891       -0.7577095968
 C          3.5524271876        1.3836464131        0.4956920054
 C          4.3029089495        2.5188377843        1.1282539270
 C          5.5560968514        2.0164817460        1.8590781792
 C          6.4244590253        1.0767792440        1.0223418697
 H          5.8710766908        0.1538611125        0.8339228650
 H          7.2931755191        0.8115284251        1.6286083872
 C          6.8943994394        1.6676200108       -0.3143245160
 H          7.9549048936        1.4416243921       -0.4432310333
 H          6.7946293212        2.7534472016       -0.2945305021
 C          6.1691358537        1.1148724633       -1.5427141282
 H          6.1876026866        0.0222809596       -1.5181502370
 H          6.7190559671        1.4309417887       -2.4330278754
 C          4.7146063492        1.5689081120       -1.7193438823
 H          4.3882996481        1.2608955982       -2.7171696616
 H          4.6590688673        2.6579672452       -1.6610987223
 H          5.2407613968        1.4821506027        2.7583043391
 H          6.1453005656        2.8819976372        2.1673537314
 H          3.6434652151        3.0078876291        1.8474943237
 H          4.5810241488        3.2369449979        0.3590492539
 O          2.6655201016        0.8160500684        1.3511815377
 C          1.9336999157       -0.3110847158        0.9934258249
 O          1.1714009446       -0.7190282629        1.8882974454
 O          3.0855061633       -0.6147730273       -2.4252336479
 C          1.3304720904       -2.0512490025       -0.7412049947
 C         -0.1221547431       -1.8903139310       -0.3687319183
 C         -0.8236515295       -2.7875563001        0.4244423989
 C         -2.1519282803       -2.5544654586        0.7366971267
 C         -2.8085477394       -1.4330820398        0.2652184151
 C         -2.1145804215       -0.5255821591       -0.5246690161
 C         -0.7872577233       -0.7652416726       -0.8417106128
 H         -0.2447431847       -0.0530720627       -1.4529164266
 N         -2.7724594586        0.6155612664       -1.0180198629
 S         -3.6451621681        1.5637629297        0.0596892050
 O         -3.6653969826        2.8822241428       -0.5376734886
 O         -3.1223887896        1.4742281831        1.4029520624
 C         -5.2853098061        0.8733728886       -0.0104275927
 C         -5.8982442982        0.4336700019        1.1463542492
 C         -7.1768075835       -0.0965343074        1.0671640493
 C         -7.8162089109       -0.1759600098       -0.1604665648
 C         -7.1878229890        0.2730473737       -1.3126185478
 C         -5.9102437646        0.8045631195       -1.2402708753
 H         -5.3883115438        1.1681693108       -2.1095619198
 H         -7.6884280197        0.2101959437       -2.2653568096
 H         -8.8103978453       -0.5899145498       -0.2194606507
 H         -7.6667304304       -0.4454353142        1.9620089449
 H         -5.3595754270        0.5111701063        2.0776207554
 H         -2.1869124832        1.1969675438       -1.6003494438
 H         -3.8402018806       -1.2454122760        0.5140166701
 H         -2.6830700792       -3.2562102243        1.3615815316
 H         -0.3242408833       -3.6555189559        0.8219393009
 H          1.3998313018       -2.0200636619       -1.8419950482
 C          1.9248654544       -3.3840891320       -0.3120164040
 C          3.3931822826       -3.5232030134       -0.0455084177
 C          2.4134864849       -3.6353322949        1.0818902403
 H          2.2438882083       -4.6099882234        1.5157899752
 H          2.3432561984       -2.8245120775        1.7896991999
 H          3.8949011420       -4.4165701086       -0.3858438959
 H          3.9997632284       -2.6311867792       -0.1083061861
 H          1.4503338336       -4.2189825121       -0.8183722286
