  62
        -98.94428828
 C         -2.6035887692       -1.1188353001        0.2051772804
 C         -2.7209528088       -0.3268682701       -0.9629286096
 C         -3.5886457683        0.8520296902       -0.8455922598
 C         -4.2244963683        1.1042520505        0.3130821202
 C         -5.1730921079        2.2433936609        0.5728507200
 C         -4.4844056074        3.5592400607        0.9600531300
 C         -3.7524621871        4.2696746303       -0.1792308200
 H         -4.4278255069        4.3839845506       -1.0274937200
 H         -3.5024625767        5.2713798903        0.1758680600
 C         -2.4636584873        3.5708565098       -0.6349889498
 H         -1.6637143670        4.3081811595       -0.7327278398
 H         -2.1475034276        2.8570683097        0.1296834502
 C         -2.5766744375        2.8428564798       -1.9746666798
 H         -2.7600412871        3.5681276998       -2.7703149999
 H         -1.6221936177        2.3506863394       -2.1789905397
 C         -3.6785471879        1.7760975202       -2.0221965098
 H         -4.6596233877        2.2485402106       -2.0635482299
 H         -3.5372613881        1.1775930201       -2.9252584698
 H         -5.2568490972        4.2306139810        1.3421599999
 H         -3.7846926076        3.3610086805        1.7755869101
 H         -5.7991226678        2.4042301711       -0.3052158300
 H         -5.8111562781        1.9323473712        1.4028919000
 O         -4.0883866487        0.3130145406        1.4117568402
 C         -3.2591481292       -0.7978593398        1.3924876903
 O         -3.1903371295       -1.4073221097        2.4805563304
 O         -2.1366972688       -0.5893167604       -2.0451082696
 C         -1.7271210997       -2.3568576004        0.1891644505
 C         -0.3120679395       -2.0048331610       -0.2037844894
 C          0.4517868503       -2.7859982314       -1.0611260693
 C          1.7530840504       -2.4263337819       -1.3666479092
 C          2.3209641308       -1.2878221721       -0.8263933592
 C          1.5719344511       -0.5065671617        0.0438951407
 C          0.2712853009       -0.8728539112        0.3524315006
 H         -0.3093412289       -0.2635429809        1.0360481705
 N          2.1454114315        0.6547884581        0.5971130507
 S          3.5790267913        0.4662546676        1.4572288208
 O          3.6689087608       -0.8507307024        2.0450062309
 O          3.6206894117        1.5844777776        2.3744088207
 C          4.8500983315        0.6736278070        0.2282082509
 C          5.7474122011       -0.3484788034       -0.0122660190
 C          6.7311029613       -0.1641536138       -0.9714682489
 C          6.7999214718        1.0325241761       -1.6683308990
 C          5.8930603122        2.0503561165       -1.4123230791
 C          4.9077710120        1.8730158569       -0.4541671992
 H          4.1877472923        2.6396204772       -0.2208433893
 H          5.9502464626        2.9797624664       -1.9556631292
 H          7.5653829319        1.1733660458       -2.4149823889
 H          7.4374205110       -0.9537518841       -1.1714571488
 H          5.6516167107       -1.2628365733        0.5512102211
 H          1.4930854116        1.2057141684        1.1365059406
 H          3.3300126810       -0.9984299025       -1.0700415291
 H          2.3316125102       -3.0401636421       -2.0399172991
 H          0.0266950899       -3.6767711212       -1.4934324992
 H         -1.7061707199       -2.7302829604        1.2243537906
 C         -2.3510425000       -3.4157930302       -0.6974583694
 C         -2.1654887706       -4.8704085703       -0.3897611893
 C         -3.4958744404       -4.2199193198       -0.1616910195
 H         -4.3121175904       -4.4623157595       -0.8254253795
 H         -3.8044926304       -4.0234678796        0.8551926705
 H         -2.0715219108       -5.5638897004       -1.2118391493
 H         -1.5739522008       -5.1277465705        0.4760066507
 H         -2.3963428398       -3.1109416903       -1.7366313495
