  62
        -98.94089729
 C          2.3226645347        0.7950878359       -0.1297745432
 C          3.5942587476        1.1901464729        0.3505273282
 C          4.7436353760        0.4939134806       -0.2373233263
 C          4.5439990654       -0.4379633648       -1.1873083507
 C          5.6161163567       -1.2179110411       -1.8992840215
 C          6.1013835487       -2.4560336802       -1.1326049353
 C          6.9700605121       -2.1644923279        0.0917420017
 H          7.4154482202       -3.1120938689        0.4010232458
 H          7.7853872948       -1.4989516829       -0.1931826729
 C          6.2066754703       -1.5665761674        1.2817703878
 H          5.1353059668       -1.7334368488        1.1473040222
 H          6.4981998078       -2.0836144146        2.1987590047
 C          6.4508381552       -0.0742131228        1.5057634638
 H          5.8350959012        0.2516901356        2.3479500415
 H          7.4975710850        0.0902724145        1.7705530072
 C          6.1076397801        0.8090399673        0.2989894859
 H          6.8598773988        0.6907934738       -0.4803997620
 H          6.1023055756        1.8513145788        0.6269562235
 H          5.2304388339       -3.0426453729       -0.8310839202
 H          6.6849332427       -3.0620318875       -1.8295060839
 H          5.1825603552       -1.5472290177       -2.8459781851
 H          6.4631486557       -0.5654593642       -2.1129525258
 O          3.3048317530       -0.7748519109       -1.6369282473
 C          2.1649471143       -0.1841382587       -1.1098899743
 O          1.0972447603       -0.6086098292       -1.5934609152
 O          3.7590405649        2.0786689608        1.2287683006
 C          1.0847584990        1.4658534053        0.4350001191
 C          0.1425795062        0.4388610874        1.0123266669
 C          0.6461661603       -0.5290224845        1.8780777980
 C         -0.1828901687       -1.4914744914        2.4193016264
 C         -1.5317303136       -1.5091737964        2.1103597417
 C         -2.0494189138       -0.5367893144        1.2633944437
 C         -1.2136264028        0.4336716172        0.7271970851
 H         -1.6374003168        1.1717702577        0.0686887986
 N         -3.4289994068       -0.5042889173        0.9874868515
 S         -3.9944029204       -0.0764186565       -0.5441575024
 O         -3.4753904465       -0.9790862154       -1.5481391839
 O         -3.7653207792        1.3290578683       -0.7605411069
 C         -5.7386553836       -0.3625124965       -0.3024593930
 C         -6.3199512409       -1.5157164560       -0.7937347113
 C         -7.6719332593       -1.7308761626       -0.5753876384
 C         -8.4146238660       -0.7956972030        0.1292707515
 C         -7.8172545627        0.3578581580        0.6157347020
 C         -6.4667759131        0.5797271418        0.3992838144
 H         -5.9617971945        1.4645935400        0.7496666915
 H         -8.3985467377        1.0838883715        1.1608619991
 H         -9.4663129953       -0.9655408815        0.2978884013
 H         -8.1395631398       -2.6248551621       -0.9554953176
 H         -5.7046306433       -2.2104240074       -1.3428491877
 H         -3.8960971642       -1.3466423213        1.2975114266
 H         -2.1780664403       -2.2680462874        2.5249476674
 H          0.2242249595       -2.2408576704        3.0816817098
 H          1.7023402856       -0.5208636020        2.1122385547
 H          1.4461498835        2.1026384480        1.2570365103
 C          0.4427937416        2.3489200743       -0.6142900740
 C         -0.3300589804        3.5668266561       -0.2080366446
 C          1.0079419067        3.7133432226       -0.8663469183
 H          1.0489066831        4.0742396982       -1.8831209607
 H          1.8464806048        4.0202411886       -0.2583666631
 H         -1.2164741374        3.8213597682       -0.7697841461
 H         -0.4012425345        3.7819122898        0.8474846745
 H          0.0915666986        1.7862077831       -1.4736369034
