  62
        -98.94649466
 C         -1.5467087283       -1.0948056992        0.0186336446
 C         -2.5931175755       -0.8022231917        0.9305938949
 C         -3.3036188086        0.4618851917        0.7118792602
 C         -2.9141230556        1.2821406542       -0.2805895799
 C         -3.5100796290        2.6250405255       -0.6051479885
 C         -4.7646808541        2.5545197518       -1.4866650054
 C         -6.0233073616        2.0383432561       -0.7882874497
 H         -6.1855838749        2.6026739200        0.1305411935
 H         -6.8655517357        2.2471388488       -1.4509973580
 C         -6.0030354759        0.5355357989       -0.4754898093
 H         -5.2277041023        0.0494498564       -1.0721878259
 H         -6.9566357330        0.0898847380       -0.7675687549
 C         -5.7778540482        0.1975304957        0.9983605359
 H         -5.7437758761       -0.8903390679        1.0988092389
 H         -6.6193889767        0.5633473443        1.5908280170
 C         -4.4812952033        0.7697013493        1.5861995546
 H         -4.5777351455        1.8453304131        1.7317840563
 H         -4.3072095336        0.2986332035        2.5566157076
 H         -4.9653725198        3.5654555665       -1.8489280920
 H         -4.5476127591        1.9281394142       -2.3550616423
 H         -3.7428485786        3.1557566897        0.3183355199
 H         -2.7445295617        3.1858947049       -1.1457475510
 O         -1.8854764586        0.9803559286       -1.1151244130
 C         -1.1922655534       -0.2182363816       -1.0065940040
 O         -0.3056569552       -0.3627536143       -1.8699103326
 O         -2.9139684443       -1.5609213189        1.8826623201
 C         -0.7624351297       -2.3813680880        0.2246130495
 C          0.6205319211       -1.9855475528        0.6765699391
 C          0.8414053167       -1.6761386533        2.0160522851
 C          2.0691364166       -1.2024232962        2.4395007741
 C          3.0944634517       -0.9992801698        1.5317117222
 C          2.8770762506       -1.2922388592        0.1922965587
 C          1.6581113351       -1.8083965494       -0.2251288270
 H          1.5060923934       -2.0244515229       -1.2703326635
 N          3.8892025749       -1.0230297570       -0.7480174326
 S          4.6044412045        0.4877925163       -0.6434540682
 O          4.9807358311        0.8328733429       -1.9970787284
 O          5.6904035402        0.4330654573        0.3053835475
 C          3.3479580927        1.6039664862       -0.0351690895
 C          3.6317206092        2.3991788315        1.0572360485
 C          2.6596330913        3.2652420831        1.5307110708
 C          1.4215762072        3.3188671765        0.9092364629
 C          1.1536464203        2.5163252017       -0.1884299400
 C          2.1229346616        1.6513356097       -0.6701621472
 H          1.9118831400        1.0136574165       -1.5142954288
 H          0.1898281865        2.5421762546       -0.6724980103
 H          0.6598910569        3.9863940029        1.2805941925
 H          2.8673624546        3.8907004225        2.3839174897
 H          4.6036942588        2.3178610680        1.5162915022
 H          3.6066079669       -1.2133114735       -1.6990675938
 H          4.0525395575       -0.6103768488        1.8371082180
 H          2.2274738736       -0.9748319061        3.4824667718
 H          0.0295330968       -1.7967720020        2.7193191372
 H         -1.2631058227       -2.8992084937        1.0531631474
 C         -0.7834655399       -3.2771761843       -0.9953855310
 C         -0.3377345474       -4.7019980807       -0.8633989680
 C         -1.7875322763       -4.3863984300       -1.0723323615
 H         -2.2325414745       -4.6124495494       -2.0298621093
 H         -2.4628766704       -4.5088277569       -0.2383073311
 H          0.2145496812       -5.1485357699       -1.6761292887
 H         -0.0270089880       -5.0365602389        0.1147906226
 H         -0.5541617305       -2.7582002432       -1.9180197975
