  62
        -98.93810985
 C         -2.2381120794       -0.9288989874        0.3236267472
 C         -2.4388950091       -0.0470637698       -0.7635946510
 C         -3.2944701240        1.1252565691       -0.5017264820
 C         -3.7935780676        1.3093162883        0.7327968550
 C         -4.7217742606        2.4001864778        1.1905145668
 C         -6.1864540227        1.9391318512        1.1004465254
 C         -6.8510309973        2.1679407398       -0.2565626657
 H         -7.8287769031        1.6817476778       -0.2249084283
 H         -7.0218352208        3.2374926925       -0.3959456681
 C         -6.0757672963        1.6350948593       -1.4645185822
 H         -6.7822341148        1.5150401520       -2.2881177393
 H         -5.6739568426        0.6460187551       -1.2372091783
 C         -4.9429355701        2.5694120657       -1.9152340706
 H         -5.0643522658        3.5361062038       -1.4266383913
 H         -5.0313365064        2.7518842430       -2.9881226960
 C         -3.5200242885        2.0431897948       -1.6719898092
 H         -3.1907683631        1.4656821340       -2.5414823748
 H         -2.8347116496        2.8929531003       -1.5857757420
 H         -6.2187803444        0.8759901893        1.3525889283
 H         -6.7682260988        2.4710957145        1.8559851893
 H         -4.4820875324        2.5948861083        2.2380693378
 H         -4.5596839748        3.3091495190        0.6188367063
 O         -3.5418256059        0.4533108578        1.7627571718
 C         -2.7688197941       -0.6797950863        1.5878145910
 O         -2.6200120106       -1.3688550319        2.6188216381
 O         -1.9348288156       -0.2287146939       -1.9020373740
 C         -1.3903708534       -2.1741897746        0.1415094378
 C          0.0131139205       -1.8000120412       -0.2726167414
 C          0.7150813453       -2.4608736676       -1.2718246171
 C          2.0084901430       -2.0815412181       -1.5878556720
 C          2.6291006420       -1.0431712202       -0.9188549942
 C          1.9413908207       -0.3835511450        0.0916867508
 C          0.6485616219       -0.7695653755        0.4095948771
 H          0.1155062124       -0.2567521097        1.2020910199
 N          2.5593618188        0.6804564650        0.7730946745
 S          4.0868923759        0.4213054523        1.4220671408
 O          4.2841463526       -0.9662230855        1.7729135664
 O          4.2071874724        1.3798067495        2.4992293661
 C          5.1953339090        0.8840520150        0.1080251963
 C          6.1664325645       -0.0007102252       -0.3181661397
 C          7.0262315019        0.3871735527       -1.3341611831
 C          6.9007076708        1.6458587185       -1.9017085816
 C          5.9211375258        2.5233111288       -1.4606281539
 C          5.0593494120        2.1425266280       -0.4445744750
 H          4.2869817704        2.7944082831       -0.0715509834
 H          5.8259681294        3.5010884341       -1.9047588467
 H          7.5699545435        1.9452938168       -2.6927523268
 H          7.7883844065       -0.2931759842       -1.6785197553
 H          6.2220699662       -0.9710650942        0.1488351257
 H          1.9599505813        1.1270904107        1.4519778931
 H          3.6335133807       -0.7412915340       -1.1667474218
 H          2.5395861643       -2.6005373901       -2.3710247968
 H          0.2485677582       -3.2716446387       -1.8065502052
 H         -1.3311668024       -2.6481985925        1.1330815011
 C         -2.0692836052       -3.1318527391       -0.8158734815
 C         -1.8707393023       -4.6102729468       -0.6757501269
 C         -3.1841929173       -3.9920160245       -0.3044457328
 H         -4.0374404083       -4.1657741574       -0.9427656871
 H         -3.4338418548       -3.9074028502        0.7436802747
 H         -1.8254595269       -5.2119377867       -1.5709566526
 H         -1.2309095593       -4.9561580385        0.1221579437
 H         -2.1723474622       -2.7185895392       -1.8124436567
