  62
        -98.93957693
 C         -2.5457613101       -1.3885694313        0.1732583711
 C         -2.8057351006       -0.4644125222       -0.8684957396
 C         -3.9452721910        0.4431554475       -0.6524125102
 C         -4.6516242708        0.3666902981        0.4892518799
 C         -5.7964770111        1.2648744679        0.8560494094
 C         -5.3128613516        2.4976515187        1.6324739183
 C         -4.1352678319        3.2183032487        0.9762099176
 H         -3.9005871222        4.0876989293        1.5940377369
 H         -3.2602371217        2.5643268991        0.9970525980
 C         -4.3941266623        3.6722688675       -0.4671974927
 H         -5.4664506023        3.6855747869       -0.6651726426
 H         -4.0302491127        4.6953021175       -0.5837620235
 C         -3.6939983221        2.8272337069       -1.5330954921
 H         -2.6325247420        2.7348297275       -1.2883792422
 H         -3.7631154524        3.3570621661       -2.4870569325
 C         -4.2637843015        1.4196212465       -1.7501843609
 H         -5.3422393116        1.4805506259       -1.9096031909
 H         -3.8050487715        1.0127202760       -2.6563784307
 H         -5.0054622913        2.1793727796        2.6311701785
 H         -6.1510211318        3.1886967485        1.7385685879
 H         -6.4874079708        0.6996546281        1.4836872599
 H         -6.3138173314        1.5731235370       -0.0504637308
 O         -4.3664758403       -0.5243115910        1.4721277006
 C         -3.3175768700       -1.4161880707        1.3396904012
 O         -3.1747598496       -2.1831782099        2.3122081718
 O         -2.1355920708       -0.3804093628       -1.9316198198
 C         -1.4360542197       -2.4265837609        0.1107219617
 C         -0.1152547399       -1.8558018700        0.5571901611
 C          0.6514187705       -2.4942540689        1.5243083016
 C          1.8780402303       -1.9779006781        1.9049553710
 C          2.3654615698       -0.8198823784        1.3260111200
 C          1.6062661694       -0.1742509694        0.3588966996
 C          0.3748140396       -0.6894954502       -0.0148724898
 H         -0.2056480107       -0.1911472211       -0.7779998802
 N          2.1092453688        0.9983803703       -0.2477581914
 S          3.4848483388        0.7620451601       -1.1939709013
 O          3.5095196283        1.8676339794       -2.1261034922
 O          3.5011085693       -0.5644558103       -1.7677804003
 C          4.8279286389        0.9410905216       -0.0396522216
 C          5.6858693693       -0.1173214679        0.1862524791
 C          6.7258876894        0.0447861733        1.0883936188
 C          6.8881653990        1.2555765738        1.7442854379
 C          6.0190588985        2.3096936833        1.5039654771
 C          4.9779045485        2.1547003622        0.6027508274
 H          4.2830891081        2.9479991717        0.3827346468
 H          6.1491831482        3.2496513937        2.0156654364
 H          7.6972935290        1.3788010247        2.4467348077
 H          7.4026529497       -0.7731511963        1.2764286194
 H          5.5162071097       -1.0409078984       -0.3434866602
 H          1.4110806086        1.4721052896       -0.8052735917
 H          3.3197657196       -0.4125932977        1.6176470396
 H          2.4615402106       -2.4833306173        2.6590630313
 H          0.2748924409       -3.3968452387        1.9831975323
 H         -1.7272608093       -3.1972831904        0.8414572524
 C         -1.3486175396       -3.1076323519       -1.2506764377
 C         -0.1946917298       -2.9593137322       -2.1927083280
 C         -0.3968910391       -4.2484980217       -1.4580709469
 H         -0.7352905189       -5.1137560923       -2.0076016762
 H          0.2890495610       -4.4735055408       -0.6552092368
 H         -0.4170685799       -2.9204236531       -3.2486363580
 H          0.6374437400       -2.3326426416       -1.9089888486
 H         -2.3261395896       -3.2051845827       -1.7126794275
