  62
        -98.93278066
 C          1.8297298796        0.6173724157        0.8850023622
 C          2.1790444842       -0.7501496920        0.7548584350
 C          3.6097350131       -1.0658911539        0.6066501942
 C          4.4995401065       -0.0587850193        0.6132228126
 C          5.9895097548       -0.1480033521        0.4297064033
 C          6.3688551823        0.0554418240       -1.0468679970
 C          6.3544610853       -1.2146170282       -1.8966324430
 H          6.5105950365       -0.9124679224       -2.9348278742
 H          7.1970464566       -1.8473555943       -1.6097502546
 C          5.0698551071       -2.0433432098       -1.8136617060
 H          4.2020227740       -1.3818280935       -1.8446946319
 H          5.0233974184       -2.6779287242       -2.7008620835
 C          5.0046872909       -2.9325385588       -0.5629045990
 H          5.9883360236       -2.9608128170       -0.0944402242
 H          4.7742220201       -3.9576727793       -0.8602086123
 C          3.9493463818       -2.5256319516        0.4759796674
 H          2.9971641878       -3.0096924251        0.2374006389
 H          4.2528494342       -2.9023271440        1.4585404822
 H          5.6800360835        0.7905215914       -1.4711249201
 H          7.3724305508        0.4830269846       -1.0952538535
 H          6.4238085219        0.6651402653        1.0151672975
 H          6.3689822640       -1.0928708477        0.8071695298
 O          4.1257837965        1.2420414569        0.7436750961
 C          2.7962668582        1.6239498372        0.8689485726
 O          2.6396089941        2.8546789771        0.9549198226
 O          1.3223441988       -1.6754903770        0.7647495020
 C          0.3515337676        0.9233504568        1.0372381149
 C         -0.3165738409        1.1722061555       -0.2906705544
 C          0.2693553552        1.9652767847       -1.2713976728
 C         -0.3846548614        2.1932335576       -2.4687315461
 C         -1.6408965805        1.6605077184       -2.6997115800
 C         -2.2365546458        0.8692432471       -1.7250697312
 C         -1.5617153583        0.6141885321       -0.5395976069
 H         -2.0172563738       -0.0240205644        0.2014307801
 N         -3.5092642808        0.3145950530       -1.9168428764
 S         -4.5927980888        0.3017067965       -0.6370933585
 O         -5.8956060873        0.2446477624       -1.2638122620
 O         -4.3610200659        1.4106748305        0.2575049832
 C         -4.2808146868       -1.2416815555        0.1915560132
 C         -4.0106167155       -1.2509855134        1.5455220782
 C         -3.7811380947       -2.4643196493        2.1747900006
 C         -3.8276563949       -3.6405187481        1.4427168991
 C         -4.1043339698       -3.6143129611        0.0840244217
 C         -4.3347234687       -2.4047159091       -0.5507721200
 H         -4.5555004514       -2.3438542707       -1.6033487844
 H         -4.1384365623       -4.5319824835       -0.4808008644
 H         -3.6455170021       -4.5827725482        1.9349774792
 H         -3.5637296995       -2.4859375659        3.2307206239
 H         -3.9772117105       -0.3126188177        2.0771984130
 H         -3.9562659023        0.5656534738       -2.7866115412
 H         -2.1566326953        1.8553898668       -3.6278216510
 H          0.0820115960        2.8072949165       -3.2244630921
 H          1.2350876450        2.4096458280       -1.0821458985
 H         -0.0839491817       -0.0018139756        1.4483477648
 C          0.0623008336        2.0353037382        2.0362077771
 C         -0.3385531398        3.4206687240        1.6395515522
 C         -1.3425926168        2.5073618212        2.2730180855
 H         -1.6512903888        2.7075762250        3.2883340969
 H         -2.1301706206        2.1173379554        1.6438012371
 H          0.0619812502        4.2423727898        2.2132313730
 H         -0.4406540786        3.6389650333        0.5881410830
 H          0.6984599873        1.9580234769        2.9128334668
