  62
        -98.93976506
 C          2.4891438612        1.0504685828        0.3680233771
 C          2.4530175872       -0.1338427292        1.1509775724
 C          3.5435101374       -1.0906956125        0.9377111949
 C          4.5225886600       -0.7984999117        0.0626840290
 C          5.7281853002       -1.6472211359       -0.2379043960
 C          5.4761764212       -2.7486002668       -1.2763183091
 C          4.6261759892       -3.9211639295       -0.7857311507
 H          4.7095815016       -4.7127159990       -1.5329220203
 H          5.0426357377       -4.3065113942        0.1453553380
 C          3.1409888690       -3.5864309369       -0.5870326616
 H          2.9008137491       -2.6584359152       -1.1116243205
 H          2.5260799111       -4.3715515868       -1.0328511051
 C          2.7095961928       -3.4512512484        0.8736768586
 H          2.8136377038       -4.4149008440        1.3776769672
 H          1.6517205991       -3.1735338216        0.8938414744
 C          3.4917897436       -2.3977179842        1.6691925843
 H          2.9732962984       -2.2285180396        2.6162407407
 H          4.4991193186       -2.7568369144        1.8799387089
 H          6.4503544536       -3.1367463533       -1.5821882200
 H          5.0055608220       -2.2999979547       -2.1540501445
 H          6.0989420017       -2.0937297975        0.6851226533
 H          6.4917906248       -0.9722664064       -0.6301941114
 O          4.5364143635        0.3555696552       -0.6511913112
 C          3.5170894299        1.2926907230       -0.5439420825
 O          3.6702459171        2.2721256838       -1.2991216948
 O          1.5557680427       -0.3725499433        2.0047959298
 C          1.3512752216        2.0369173050        0.5705522665
 C          0.3057024767        1.8910007860       -0.5099797548
 C          0.5588555799        2.2628286922       -1.8265355411
 C         -0.4192432300        2.1152613145       -2.7926235513
 C         -1.6608498786        1.5976077294       -2.4689128035
 C         -1.9259289912        1.2270622399       -1.1553388216
 C         -0.9423640233        1.3764886314       -0.1873869818
 H         -1.1510750726        1.0672570575        0.8260012056
 N         -3.1974796179        0.7455826734       -0.7986965135
 S         -3.3462728426       -0.4170755293        0.4156162581
 O         -3.1766957634        0.2221170422        1.6957541803
 O         -2.4903164640       -1.5480836549        0.1332170476
 C         -5.0596480065       -0.8608067602        0.1976286242
 C         -6.0246126802        0.0191934284        0.6509624680
 C         -7.3606137715       -0.2968123202        0.4638834830
 C         -7.7081898673       -1.4811145889       -0.1694008447
 C         -6.7290907679       -2.3553386636       -0.6163479047
 C         -5.3903918680       -2.0442071449       -0.4340972760
 H         -4.5948868455       -2.6956445019       -0.7587782052
 H         -7.0022232400       -3.2766220144       -1.1051779946
 H         -8.7488383162       -1.7253326985       -0.3130668857
 H         -8.1246297702        0.3791345740        0.8125144161
 H         -5.7066542456        0.9222418015        1.1452204402
 H         -3.7559086449        0.4970805406       -1.6045491525
 H         -2.4213588107        1.4833037288       -3.2265037856
 H         -0.2102329807        2.4020256266       -3.8123204122
 H          1.5331981608        2.6462179096       -2.0864187333
 H          0.8836960929        1.7385717080        1.5195479550
 C          1.8088020783        3.4769631585        0.6960100533
 C          0.8893701033        4.4701945117        1.3384674607
 C          2.1313574693        4.0275692409        2.0509542556
 H          2.9521118131        4.7230754766        2.1413593151
 H          2.0250516549        3.3649526460        2.8978974925
 H          0.8541476058        5.4723258803        0.9399988463
 H         -0.0602251676        4.1060835090        1.7020199715
 H          2.4162751742        3.8126526274       -0.1338146200
