  62
        -98.94614022
 C          1.4351120359        1.1453859997       -0.0284404505
 C          2.3677326036        0.7088060977        0.9492995182
 C          3.0958123997       -0.5303153591        0.6494206993
 C          2.8350526988       -1.1824254988       -0.4976738702
 C          3.5316575447       -2.4307417979       -0.9544655631
 C          4.7604555649       -2.0980739523       -1.8124598810
 C          5.6852825191       -1.0528608350       -1.1886877096
 H          6.5311492200       -0.9214956178       -1.8670160140
 H          5.1612493928       -0.0955198626       -1.1406944475
 C          6.2031803746       -1.4169735576        0.2098086233
 H          6.0805353057       -2.4866242373        0.3835339593
 H          7.2731407755       -1.2028332043        0.2533307336
 C          5.5463838665       -0.6390731584        1.3517751101
 H          6.1301274949       -0.8116074821        2.2598521151
 H          5.5870310612        0.4315897663        1.1361003368
 C          4.0923334822       -1.0140662423        1.6646329505
 H          4.0129536326       -2.0947294268        1.7979947334
 H          3.8196607696       -0.5298516206        2.6066653804
 H          4.4169594924       -1.7184621854       -2.7776584153
 H          5.3174941609       -3.0198859954       -1.9897532680
 H          3.8303229915       -3.0130948419       -0.0849708226
 H          2.8338702739       -3.0191966510       -1.5531154394
 O          1.9226504824       -0.7462619657       -1.4014401635
 C          1.2008143736        0.4218878702       -1.1974946164
 O          0.4073299645        0.6796865507       -2.1239167630
 H         -1.4714551020        1.8321742601       -1.3304666928
 C         -1.7077534426        1.7148108769       -0.2847434783
 C         -0.7479273863        2.0034188721        0.6741455445
 C         -1.0671060033        1.8082404980        2.0142909060
 C         -2.3150320995        1.3386317329        2.3831360787
 C         -3.2608600460        1.0266562753        1.4223309318
 C         -2.9434976379        1.2035533169        0.0821968123
 N         -3.8675689349        0.8055588945       -0.9049980659
 S         -4.4275843814       -0.7671961630       -0.7453714511
 O         -4.6620557529       -1.2403410490       -2.0918472254
 O         -5.5791527593       -0.7722115212        0.1235294637
 C         -3.1015364572       -1.6824885857        0.0283197523
 C         -3.3357059303       -2.3303988706        1.2244310064
 C         -2.2975134732       -3.0172291117        1.8325657670
 C         -1.0455750675       -3.0423885989        1.2381984714
 C         -0.8282259620       -2.3917591248        0.0338375851
 C         -1.8620861451       -1.7037790785       -0.5801216173
 H         -1.7013453816       -1.1831167780       -1.5115463163
 H          0.1455185622       -2.4044481288       -0.4298138570
 H         -0.2325644853       -3.5688077091        1.7128692385
 H         -2.4650740445       -3.5250512201        2.7686091540
 H         -4.3224455819       -2.2786185632        1.6551069689
 H         -3.5266955321        0.9589298119       -1.8439858764
 H         -4.2305065300        0.6354918656        1.6853795769
 H         -2.5498450388        1.2000633053        3.4272274145
 H         -0.3169676655        2.0106351328        2.7650862897
 C          0.6496435191        2.4119057780        0.2789475973
 H          1.1380269849        2.8476569330        1.1602547739
 C          0.6868665974        3.4258369851       -0.8450162282
 C          0.2681709504        4.8367508798       -0.5623878663
 C          1.7112331830        4.5186442930       -0.8107319942
 H          2.1576616809        4.8352201096       -1.7415717017
 H          2.3907808001        4.5423314257        0.0286280852
 H         -0.2788593767        5.3747515599       -1.3213336320
 H         -0.0321687181        5.0738503485        0.4470361800
 H          0.4435586870        3.0125242020       -1.8153740245
 O          2.5807485321        1.3302514803        2.0231633276
