  62
        -98.94483078
 C         -1.9196984854       -0.3143762473       -0.7337747973
 C         -2.9483111164       -1.2303530189       -0.4072377060
 C         -4.3075133718       -0.6800130473       -0.3761097342
 C         -4.5084669558        0.6174554978       -0.6705951138
 C         -5.8379377899        1.3217200233       -0.6983296537
 C         -6.3109831963        1.8131779485        0.6767791902
 C         -6.7856521912        0.7172201567        1.6319600049
 H         -7.2882424786        1.2139494382        2.4642950055
 H         -7.5267106499        0.0949198600        1.1293111904
 C         -5.6618057756       -0.1664823497        2.1909776775
 H         -4.7004802170        0.3310748536        2.0428687192
 H         -5.7962291324       -0.2884217641        3.2681385720
 C         -5.5942583237       -1.5667449672        1.5812805227
 H         -6.5001642564       -2.1213406969        1.8355734396
 H         -4.7431574319       -2.0920819223        2.0219072008
 C         -5.4229316215       -1.5832287089        0.0565984370
 H         -5.1646969338       -2.6001516935       -0.2486623025
 H         -6.3551025508       -1.2978525252       -0.4301884097
 H         -5.5001359682        2.3777885805        1.1430531546
 H         -7.1413261345        2.5027606754        0.5080429682
 H         -5.7161750117        2.1891499130       -1.3506259618
 H         -6.5928666222        0.6647759094       -1.1311903945
 O         -3.4944597705        1.4600919426       -1.0039022706
 C         -2.1762065522        1.0254070237       -1.0240887748
 O         -1.3496022416        1.9108137448       -1.3145332986
 O         -2.7390506271       -2.4461953786       -0.1510535655
 C         -0.4839909173       -0.8077251680       -0.7639071326
 C          0.3462075643       -0.0193044122        0.2177304518
 C         -0.0860823592        0.0602086159        1.5402962174
 C          0.6176048686        0.7960753756        2.4721845494
 C          1.7784790141        1.4579103641        2.1099850293
 C          2.2248269485        1.3777487618        0.7975190842
 C          1.5130784765        0.6369313692       -0.1383066387
 H          1.8758951462        0.6096511432       -1.1515259081
 N          3.3947690379        2.0463045843        0.4009401093
 S          4.5357007711        1.2522370335       -0.5276003110
 O          5.7370644137        2.0441560260       -0.3811741120
 O          4.0545559894        1.0687242499       -1.8723283773
 C          4.7388309385       -0.3215803577        0.2857522867
 C          5.5046601540       -0.3673455699        1.4346771437
 C          5.6140674022       -1.5657329067        2.1205038836
 C          4.9512124079       -2.6906520842        1.6530177628
 C          4.1879813624       -2.6282778017        0.4976706883
 C          4.0780358752       -1.4329733172       -0.1955770785
 H          3.4974948521       -1.3460421989       -1.0989175675
 H          3.6751663782       -3.5045692814        0.1341731709
 H          5.0314602641       -3.6225129198        2.1902381191
 H          6.2112109006       -1.6192039519        3.0165131154
 H          6.0116606678        0.5270445177        1.7588276342
 H          3.8393477898        2.5766321458        1.1360530333
 H          2.3263389551        2.0414975792        2.8340901489
 H          0.2634566594        0.8550880437        3.4903176583
 H         -0.9939533197       -0.4555969976        1.8223138674
 H         -0.5299409628       -1.8513813906       -0.4186949148
 C          0.0525133645       -0.7883026870       -2.1788523896
 C          1.0908414914       -1.7808182605       -2.6054848881
 C         -0.3147549227       -1.9025939228       -3.1108151780
 H         -0.5178820549       -1.6640614668       -4.1440362274
 H         -0.9326240127       -2.6957683698       -2.7157443127
 H          1.8613415794       -1.4583057413       -3.2905226663
 H          1.4195367975       -2.5019672495       -1.8722391274
 H          0.0983265127        0.2113466943       -2.5973013309
