  62
        -98.93660331
 C         -2.5703201871       -0.5183783672        0.0460907149
 C         -2.7891034496        0.5730575541        0.9140262559
 C         -2.6899136152        1.9245540935        0.3304299407
 C         -2.3767771630        2.0429516832       -0.9736595971
 C         -2.1579505981        3.3007686206       -1.7720849345
 C         -0.7965236242        3.9480487300       -1.4786976720
 C         -0.4563632116        4.0773074040        0.0032014441
 H         -0.4211471325        3.0788719214        0.4437503430
 H          0.5535043292        4.4902732309        0.0722133206
 C         -1.3878327052        4.9749324687        0.8153166260
 H         -1.4027632728        5.9706103272        0.3669297152
 H         -0.9545520769        5.0671267433        1.8144525161
 C         -2.8309778699        4.4873501365        0.9705467847
 H         -3.2798646661        5.0573930042        1.7890982786
 H         -3.4203644279        4.7052724923        0.0839616943
 C         -2.9686861949        3.0138846552        1.3387090678
 H         -2.3315827071        2.7979094326        2.2040982847
 H         -3.9935962859        2.8345985947        1.6853650976
 H         -0.7740618275        4.9323010398       -1.9503847937
 H         -0.0212045812        3.3292705604       -1.9389464965
 H         -2.1840349624        3.0103120222       -2.8248128828
 H         -2.9660127539        4.0054247071       -1.6002534651
 O         -2.1656006825        0.9580003820       -1.7736894336
 C         -2.2342061267       -0.3351355886       -1.2949716938
 O         -1.9936682242       -1.2161711372       -2.1432523169
 H         -0.2935260833       -0.7970924813        1.2578079987
 C         -0.1287252574       -1.7709532606        0.8108991825
 C         -1.2237802629       -2.5344834706        0.4246617186
 C         -0.9882601424       -3.7780935781       -0.1454611092
 C          0.3069675179       -4.2203710725       -0.3589995121
 C          1.3920038518       -3.4363975467       -0.0115775549
 C          1.1647396505       -2.2060786358        0.5866657647
 N          2.2749810265       -1.3704325459        0.9032147376
 S          2.6655256551       -0.3759752411       -0.4152125774
 O          1.7836537589        0.7728221349       -0.4448211982
 O          2.7113538633       -1.1934719529       -1.6000296075
 C          4.3155646468        0.1354757151        0.0277232419
 C          4.5337584047        1.3989290120        0.5404359934
 C          5.8202527946        1.7586437016        0.9116954142
 C          6.8589069417        0.8515940040        0.7688308524
 C          6.6234406622       -0.4145188518        0.2532351924
 C          5.3402731191       -0.7792078697       -0.1205780437
 H          5.1090853212       -1.7472402609       -0.5327794415
 H          7.4338147568       -1.1167752107        0.1424270648
 H          7.8584993446        1.1338117836        1.0594766423
 H          6.0057012478        2.7429421145        1.3106750135
 H          3.6967304615        2.0730772766        0.6278338131
 H          2.0480985855       -0.7487799222        1.6705870901
 H          2.4032004017       -3.7519475625       -0.2081602430
 H          0.4709977482       -5.1828279788       -0.8192838748
 H         -1.8205554890       -4.3935920844       -0.4457480251
 C         -2.5946440544       -1.9302405805        0.6059181003
 H         -2.7891692480       -1.8176366862        1.6829565884
 C         -3.7093566118       -2.7446446383       -0.0128525277
 C         -4.3136550855       -3.8892482981        0.7431194960
 C         -5.0929910045       -2.6244104539        0.5495201354
 H         -5.9284682037       -2.6300314488       -0.1341131635
 H         -5.2272766385       -1.9688656766        1.3975427271
 H         -3.9237912620       -4.0980319942        1.7277496294
 H         -4.6182773797       -4.7663917431        0.1927256346
 H         -3.6109206871       -2.8316948264       -1.0890966614
 O         -3.0434756903        0.4312639427        2.1426857176
