  62
        -98.94173599
 C         -2.2551085503       -0.7485130370        0.0748476797
 C         -3.4324329727       -1.0515993277        0.8092671280
 C         -4.3694968651        0.0565484755        1.0313002195
 C         -4.0454265181        1.2858496123        0.5923782511
 C         -4.9247816810        2.4966729180        0.7043722334
 C         -5.8167664549        2.6504041989       -0.5357012117
 C         -6.5539401068        1.3702410400       -0.9294845068
 H         -7.1733271087        1.6060001265       -1.7975683691
 H         -5.8240048128        0.6232831716       -1.2501209010
 C         -7.4327583725        0.7764654228        0.1803762417
 H         -8.3963153167        0.4948563842       -0.2493853932
 H         -7.6264864227        1.5318049122        0.9427555781
 C         -6.8574260533       -0.4763675408        0.8436110831
 H         -7.6446479582       -0.9319112235        1.4500335884
 H         -6.5766012326       -1.2012509830        0.0752496532
 C         -5.6478339425       -0.2503855149        1.7594271547
 H         -5.8761438938        0.5341359737        2.4836532748
 H         -5.4652455288       -1.1804029987        2.3056348525
 H         -6.5402000363        3.4449138447       -0.3439814052
 H         -5.1900743214        2.9574050034       -1.3764356351
 H         -4.2867737584        3.3775450850        0.7945291215
 H         -5.5389481372        2.4116985472        1.5988143882
 O         -2.8835338758        1.5540118476       -0.0529737145
 C         -1.9635380308        0.5516144181       -0.3431147083
 O         -0.9649766393        0.9628223742       -0.9635271823
 O         -3.6875421165       -2.2003677443        1.2585185892
 C         -1.2866636011       -1.8930685310       -0.1737593659
 C          0.0995715895       -1.4977426691        0.2632836300
 C          0.4264010597       -1.5346881236        1.6154997463
 C          1.6746760336       -1.1310184661        2.0501724561
 C          2.6178396307       -0.6707434348        1.1477644435
 C          2.2929096577       -0.6092119422       -0.2002384531
 C          1.0480236364       -1.0423601414       -0.6378857317
 H          0.8008787659       -0.9801516692       -1.6862297611
 N          3.2364762347       -0.1315859809       -1.1242934375
 S          4.1401645468        1.2283018525       -0.7394753549
 O          3.4462069084        2.1134532903        0.1664735587
 O          4.5340231784        1.7888839943       -2.0142391947
 C          5.5845295064        0.5517459437        0.0570727095
 C          5.9805147504        1.0328016630        1.2895991064
 C          7.1134723498        0.5006890159        1.8856536409
 C          7.8281071603       -0.4971565241        1.2411365968
 C          7.4194883393       -0.9674413356        0.0019547836
 C          6.2884406857       -0.4390387418       -0.5992750595
 H          5.9398841455       -0.7743830027       -1.5616402592
 H          7.9778388549       -1.7434059374       -0.4964580527
 H          8.7087232823       -0.9102270909        1.7072056200
 H          7.4324179330        0.8662341170        2.8485703507
 H          5.3910060239        1.8065763413        1.7557064541
 H          2.8755080563       -0.0629621399       -2.0650684911
 H          3.5872786532       -0.3384613331        1.4811465988
 H          1.9164346198       -1.1695283729        3.1015232985
 H         -0.3163459744       -1.8750283198        2.3238895682
 H         -1.6395514942       -2.6932767987        0.4966601641
 C         -1.3250150517       -2.4648016323       -1.5834143697
 C         -2.6315269724       -2.6232033891       -2.3006122999
 C         -1.6162896958       -1.6420358319       -2.8009986904
 H         -1.0848804043       -1.8770276891       -3.7121515213
 H         -1.8058413686       -0.5881901280       -2.6699768324
 H         -2.8051066035       -3.5239069905       -2.8696521604
 H         -3.5139654362       -2.2374006644       -1.8110100284
 H         -0.6061919949       -3.2694378809       -1.7063154215
