  62
        -98.94468537
 C          2.0023293731        0.7602674102        0.5633604221
 C          1.9658163270        0.0605212417       -0.6667770610
 C          2.0394149903       -1.4012715074       -0.5699996921
 C          2.0737071592       -1.9905563024        0.6384840852
 C          2.1010066088       -3.4722801271        0.9011621146
 C          3.5004318597       -4.0987307775        0.8248905941
 C          4.0814202220       -4.2255937865       -0.5839086237
 H          4.9579615811       -4.8723353508       -0.5113348675
 H          3.3584353551       -4.7260018867       -1.2286409666
 C          4.5023726993       -2.8922555558       -1.2172502935
 H          4.5858535860       -2.1300083975       -0.4392608462
 H          5.4907058690       -2.9996341903       -1.6695562916
 C          3.5581555991       -2.3827115102       -2.3061784942
 H          3.5632165874       -3.0756567216       -3.1503489337
 H          3.9300493470       -1.4175965445       -2.6589280894
 C          2.1082133284       -2.1890638260       -1.8428564772
 H          1.5701048243       -1.6227143535       -2.6070457964
 H          1.6172205055       -3.1541320898       -1.7177411471
 H          4.1786691701       -3.5114666528        1.4480943260
 H          3.4319616579       -5.0990436419        1.2585594734
 H          1.7126388225       -3.6133756641        1.9124049440
 H          1.4327925805       -3.9761543526        0.2018393305
 O          2.0682350282       -1.2828926839        1.8010580053
 C          2.0366128049        0.1022256936        1.7908634407
 O          2.0459712942        0.6254250115        2.9258250029
 H         -0.4900806148        1.1659978735        0.9520848005
 C         -0.5448409060        1.9619681708        0.2221397450
 C          0.6021314040        2.6752493998       -0.1027761966
 C          0.5025831710        3.7063746308       -1.0274420873
 C         -0.7102009733        3.9845817055       -1.6346917573
 C         -1.8376411929        3.2388560149       -1.3455077412
 C         -1.7520609142        2.2183978899       -0.4041650416
 N         -2.8799396158        1.4512379417       -0.0626410766
 S         -2.6451654217       -0.1678698158        0.3575176020
 O         -2.2927528519       -0.2378148162        1.7547774400
 O         -1.7394050988       -0.8080424217       -0.5692863241
 C         -4.3020667354       -0.7886973336        0.1296802751
 C         -4.6331129892       -1.4140241686       -1.0575686229
 C         -5.9325013920       -1.8607708488       -1.2406402197
 C         -6.8742514028       -1.6727001388       -0.2401845946
 C         -6.5269681171       -1.0440462404        0.9464650073
 C         -5.2293374639       -0.5958534580        1.1362736522
 H         -4.9092036395       -0.1102533949        2.0433709065
 H         -7.2607850906       -0.9018768460        1.7232247101
 H         -7.8845467655       -2.0211021965       -0.3850856813
 H         -6.2040024113       -2.3527398090       -2.1606598073
 H         -3.8642048340       -1.5443024169       -1.8023265829
 H         -3.6392239966        1.5563645619       -0.7220842439
 H         -2.7752878652        3.4404650586       -1.8406388034
 H         -0.7730308721        4.7829076004       -2.3585621722
 H          1.3767995562        4.2818988788       -1.2841977906
 C          1.8931818417        2.2746050275        0.5708135832
 H          1.8368186191        2.5722897787        1.6287574125
 C          3.1223170168        2.9021354236       -0.0526618117
 C          3.5857665146        4.2576010355        0.3870948894
 C          4.3632989981        3.0371707819        0.7757000211
 H          5.3189003046        2.8598847595        0.3056923285
 H          4.3113707722        2.6991405313        1.8007638726
 H          4.0127382423        4.9207504923       -0.3499951241
 H          3.0130364029        4.7569145471        1.1539360576
 H          3.2422398507        2.6293122337       -1.0948169803
 O          1.8799441718        0.6269359198       -1.7880460719
