  62
        -98.93985675
 C         -1.8311594821       -1.0202301346        0.4739672964
 C         -2.3794151746        0.0875365094        1.1710875045
 C         -3.8336106794        0.2568184421        1.0870964916
 C         -4.5674960049       -0.6346416490        0.3972260228
 C         -6.0636757600       -0.6188648307        0.2386663868
 C         -6.5619812725        0.2954415012       -0.8888248668
 C         -6.4626996201        1.7943400676       -0.6025867009
 H         -7.0425711859        2.3069836708       -1.3726691605
 H         -6.9323993255        2.0121064916        0.3571332919
 C         -5.0307673393        2.3478516917       -0.6140163729
 H         -4.3684013274        1.6383746680       -1.1155894596
 H         -5.0023461872        3.2742206778       -1.1922159526
 C         -4.4603822977        2.6610801975        0.7694750989
 H         -3.4312536463        3.0088717553        0.6454206935
 H         -5.0349065789        3.4684825760        1.2292184216
 C         -4.4426842544        1.4654268102        1.7308137526
 H         -5.4527076660        1.2451928588        2.0763323235
 H         -3.8259759063        1.7286188129        2.5938887282
 H         -6.0064590954        0.0612568233       -1.7997624690
 H         -7.6115584373        0.0504451481       -1.0669104167
 H         -6.5284016318       -0.3241494172        1.1799904153
 H         -6.3625623134       -1.6436999644        0.0083505654
 O         -4.0107971638       -1.6973139951       -0.2374708608
 C         -2.6350210126       -1.9070228137       -0.2443740680
 O         -2.2897421002       -2.9009957921       -0.9075710296
 O         -1.6819073110        0.8929682914        1.8454042187
 C         -0.3232738494       -1.1882848353        0.5463654200
 C          0.3425423881       -0.4797805399       -0.6054451437
 C         -0.0173455698       -0.7556610480       -1.9220065177
 C          0.5913665624       -0.0880161841       -2.9681852215
 C          1.5704989392        0.8595936322       -2.7252573624
 C          1.9303906867        1.1494915272       -1.4142256415
 C          1.3187126189        0.4760605773       -0.3639121428
 H          1.5846652160        0.7327496088        0.6504744252
 N          2.9028985391        2.1187056888       -1.1472030143
 S          3.8627602508        2.0611398097        0.2108211675
 O          3.1201103579        2.4615485827        1.3791518759
 O          5.0005970734        2.8897318724       -0.1265739672
 C          4.3906818576        0.3643058780        0.3772081016
 C          4.3750874532       -0.2217135306        1.6266216403
 C          4.8245889775       -1.5258948052        1.7638425103
 C          5.2743925811       -2.2210850590        0.6521537590
 C          5.2816639007       -1.6197247326       -0.5969580487
 C          4.8412842131       -0.3136637515       -0.7384435105
 H          4.8450597426        0.1786917046       -1.6969729746
 H          5.6280431306       -2.1642343622       -1.4603445205
 H          5.6165747907       -3.2379094930        0.7598829398
 H          4.8150859401       -1.9946482745        2.7347472090
 H          4.0037174565        0.3498694963        2.4624686066
 H          3.3764095217        2.5020505879       -1.9507639920
 H          2.0428207288        1.3829448307       -3.5424893539
 H          0.3033967662       -0.3099547689       -3.9847088615
 H         -0.7795852980       -1.4962744461       -2.1111708046
 H         -0.0296025575       -0.6588876754        1.4672088542
 C          0.1168718422       -2.6381770332        0.6957128212
 C          0.8976474875       -3.3834436194       -0.3413079385
 C          1.5656698902       -2.9511552625        0.9267063064
 H          1.8240308584       -3.6983619604        1.6611592050
 H          2.2616762689       -2.1274913248        0.8683215258
 H          0.6659398306       -4.4282925656       -0.4794899650
 H          1.1578077601       -2.8717774861       -1.2537817334
 H         -0.6031811370       -3.2211076995        1.2607271571
