  62
        -98.93947512
 C          2.5351244808        0.7898895666        0.7065363846
 C          3.1229801557        0.2986925135       -0.4845576401
 C          3.7187080192       -1.0430303787       -0.3968614238
 C          3.6630671342       -1.7166712110        0.7663978299
 C          4.1798092157       -3.1098026227        0.9773738510
 C          3.0889249349       -4.1551179699        0.7050471590
 C          2.3532371463       -3.9502359102       -0.6193949180
 H          1.6291115021       -4.7617485528       -0.7181789510
 H          1.7860336720       -3.0174121961       -0.5735777867
 C          3.2647428302       -3.9257881089       -1.8542488945
 H          4.2305340973       -4.3701678055       -1.6109635500
 H          2.8125527426       -4.5402885418       -2.6354483544
 C          3.4839870024       -2.5352175639       -2.4532180749
 H          2.5190171848       -2.0468281260       -2.6124986195
 H          3.9539933397       -2.6569867290       -3.4327489924
 C          4.3721462374       -1.5895663661       -1.6348862470
 H          4.5974385104       -0.7217875092       -2.2616617683
 H          5.3114063599       -2.0882240939       -1.3871499346
 H          2.3564709843       -4.1098068690        1.5143055808
 H          3.5489749295       -5.1447878951        0.7183335467
 H          5.0312723364       -3.2782425499        0.3210485042
 H          4.5078957666       -3.2014536532        2.0141370134
 O          3.0740969142       -1.2178567808        1.8839471727
 C          2.4868912794        0.0361121723        1.8788201595
 O          1.9570770927        0.3601168379        2.9623859649
 O          3.1545825740        0.9423026898       -1.5649399594
 C          1.8883975529        2.1643962887        0.7299792648
 C          0.6961186769        2.1720887856       -0.1971618734
 C          0.5438456382        3.0579285358       -1.2539519148
 C         -0.5791882290        2.9940253276       -2.0620275493
 C         -1.5699357089        2.0577563351       -1.8336418171
 C         -1.4340981671        1.1741590772       -0.7694571449
 C         -0.3088868224        1.2402764746        0.0375952194
 H         -0.1989455119        0.5541083956        0.8695502387
 N         -2.4342142942        0.2068623283       -0.5261166296
 S         -4.0155435649        0.7948090460       -0.3871084500
 O         -4.4958802996        1.1281723348       -1.7038030581
 O         -4.0657343469        1.8589804470        0.5918518802
 C         -4.8689783180       -0.6472471827        0.2169032812
 C         -5.2143212033       -1.6364221432       -0.6842312506
 C         -5.8642803854       -2.7681245950       -0.2186273186
 C         -6.1566169627       -2.8908899578        1.1318110731
 C         -5.8045502399       -1.8890897814        2.0236204725
 C         -5.1522728654       -0.7552520927        1.5648860406
 H         -4.8673750527        0.0518751610        2.2209473802
 H         -6.0353445746       -1.9857368494        3.0723557322
 H         -6.6646494669       -3.7716259000        1.4916776815
 H         -6.1419840224       -3.5485276448       -0.9085810195
 H         -4.9763332873       -1.4927508300       -1.7251110385
 H         -2.2129863274       -0.3455064711        0.2926452776
 H         -2.4501848918        2.0075685570       -2.4533103648
 H         -0.6837980059        3.6849876997       -2.8850254958
 H          1.3048207915        3.7946015781       -1.4509893331
 H          1.5141525535        2.3047042929        1.7547274847
 C          2.9073791511        3.2433918228        0.4341051931
 C          2.6780176631        4.6408882506        0.9229627977
 C          3.7322667943        3.7874705307        1.5599820851
 H          4.7694937532        4.0212057737        1.3728102912
 H          3.5455062487        3.3938715402        2.5488337101
 H          2.9932917554        5.4641868967        0.3000725889
 H          1.7740682198        4.8323165491        1.4815358371
 H          3.3970613684        3.1080144614       -0.5227201544
