  62
        -98.94894089
 C         -0.8598165115       -1.3692149887        0.1940673381
 C         -1.4386719179       -0.3239862806        0.9496797320
 C         -2.2740412367        0.6194486725        0.1990913876
 C         -2.3839499764        0.4950561631       -1.1363615867
 C         -3.1441885461        1.4202653465       -2.0484153962
 C         -4.6402679327        1.0986623154       -2.1651553917
 C         -5.4741917378        1.4455518129       -0.9313078906
 H         -5.2899315395        2.4832167158       -0.6514137062
 H         -6.5236402338        1.3673757107       -1.2219196866
 C         -5.2249841378        0.5309864084        0.2759495103
 H         -4.7210767979       -0.3796829187       -0.0559796264
 H         -6.1820478148        0.2284873491        0.7066803803
 C         -4.4057721413        1.1694535164        1.3973179453
 H         -4.9601470546        2.0091721316        1.8219351931
 H         -4.2670716437        0.4240563956        2.1843195423
 C         -3.0183848056        1.6682138221        0.9695363090
 H         -3.1101750599        2.5825000165        0.3827281292
 H         -2.4424860926        1.8809980944        1.8729622679
 H         -5.0299749845        1.6650579841       -3.0142034753
 H         -4.7511702052        0.0365055238       -2.3954232008
 H         -2.6877970187        1.3212312265       -3.0361096940
 H         -3.0170040602        2.4504877751       -1.7132495131
 O         -1.7819941008       -0.5043476868       -1.8332653881
 C         -1.0151840838       -1.4630427172       -1.1896814889
 O         -0.5431690393       -2.3355918524       -1.9441773385
 O         -1.2577586227       -0.1794221986        2.1890355036
 C          0.0397622196       -2.3723222320        0.8941251570
 C          1.4204192394       -2.2963301829        0.2906634090
 C          2.1737828028       -3.4071655761       -0.0641057520
 C          3.4089416476       -3.2477257176       -0.6692494313
 C          3.9066545574       -1.9884777039       -0.9485152685
 C          3.1667924065       -0.8700592530       -0.5801313212
 C          1.9533438544       -1.0333373729        0.0644124220
 H          1.3835424280       -0.1613874339        0.3512551461
 N          3.6327165567        0.4282911255       -0.8334807822
 S          2.5419096823        1.6546176352       -1.1619473676
 O          1.3803005829        1.1868029032       -1.8819669884
 O          3.3380164875        2.6615567589       -1.8349821296
 C          2.0850316804        2.2784017623        0.4409254439
 C          0.7703162886        2.6196032270        0.6861090905
 C          0.4359844939        3.1531032669        1.9205705117
 C          1.4157879988        3.3294306271        2.8845968013
 C          2.7320096641        2.9801226390        2.6230397103
 C          3.0746179652        2.4541017630        1.3881408916
 H          4.0861044900        2.1737961512        1.1462373709
 H          3.4904847807        3.1162388772        3.3770127146
 H          1.1488429159        3.7395361876        3.8457661469
 H         -0.5876780300        3.4227493840        2.1243121098
 H          0.0331744501        2.4453141632       -0.0834204497
 H          4.4570917497        0.4854215029       -1.4134466979
 H          4.8535775525       -1.8675778667       -1.4520925903
 H          3.9827130111       -4.1185768677       -0.9481075927
 H          1.7883266036       -4.3971867245        0.1164676283
 H          0.0967064999       -2.0354200458        1.9401762053
 C         -0.5646042978       -3.7597594981        0.8580197403
 C         -0.2706387276       -4.7416539197        1.9517889580
 C         -1.6267559536       -4.1122224897        1.8545672632
 H         -2.4580471794       -4.7193583211        1.5289279509
 H         -1.8950854824       -3.3572028096        2.5789730329
 H         -0.1726528387       -5.7855162152        1.6945627269
 H          0.3800954115       -4.4196401353        2.7504288938
 H         -0.6815810473       -4.1343453670       -0.1529040279
