  62
        -98.93846354
 C          2.2528725833        1.2193764517        0.2667675086
 C          2.4016516768        0.1102355320       -0.5973477931
 C          3.3037520046       -0.9661342299       -0.1429350044
 C          3.9229724119       -0.8617141596        1.0469490610
 C          4.8437473615       -1.8117056113        1.7842983645
 C          5.4795099695       -3.0007836919        1.0688224295
 C          6.5070018202       -2.6295703646       -0.0000211358
 H          7.3883622809       -2.2146713512        0.4953166538
 H          6.8128237872       -3.5445928824       -0.5118770770
 C          6.0404856180       -1.6116404893       -1.0375560138
 H          6.8690148326       -1.4353173761       -1.7287675905
 H          5.8230345250       -0.6608617727       -0.5468338635
 C          4.8274380987       -2.0308972944       -1.8654020977
 H          5.0167396363       -2.9996210718       -2.3319751165
 H          4.7025845539       -1.2940127053       -2.6633970107
 C          3.4964357533       -2.1095232947       -1.0977361590
 H          2.6822061122       -2.0439134481       -1.8255228153
 H          3.3911058974       -3.0608603120       -0.5813958532
 H          4.7102065221       -3.6444932108        0.6522563959
 H          5.9970829194       -3.5836628890        1.8356173019
 H          4.2594608862       -2.1897632886        2.6307353194
 H          5.6344759540       -1.1867754271        2.2114831280
 O          3.7381436870        0.2227966344        1.8549450809
 C          2.9166656511        1.2726132062        1.4955066520
 O          2.8642012487        2.1896546699        2.3387749600
 O          1.8166940547       -0.0076902487       -1.7082592077
 C          1.3520973729        2.4073136867       -0.0420619255
 C         -0.0850332466        2.0327552761        0.2317166940
 C         -0.7348680113        2.5062536126        1.3660583862
 C         -2.0345179655        2.1223170375        1.6454361119
 C         -2.7095693354        1.2549154431        0.8049651887
 C         -2.0637987955        0.7657583705       -0.3225681566
 C         -0.7672339787        1.1658905907       -0.6100087572
 H         -0.2638073687        0.7629298958       -1.4758547326
 N         -2.7341050551       -0.1354703880       -1.1725284828
 S         -3.3559266330       -1.5248630115       -0.4585983694
 O         -2.6129774991       -1.8926109617        0.7256105769
 O         -3.4104999752       -2.5095532411       -1.5172689974
 C         -5.0187315637       -1.0613927023       -0.0194572377
 C         -5.4478164513       -1.1844583191        1.2874393977
 C         -6.7490715309       -0.8242854616        1.6022113512
 C         -7.5935017953       -0.3509566363        0.6096779851
 C         -7.1478430555       -0.2357740733       -0.6988103343
 C         -5.8487263793       -0.5949637437       -1.0202379630
 H         -5.4635153939       -0.5246936723       -2.0237096218
 H         -7.8075070302        0.1325689096       -1.4678423808
 H         -8.6050354738       -0.0704948424        0.8575954783
 H         -7.0970542531       -0.9137354233        2.6187684958
 H         -4.7535174053       -1.5521637183        2.0262935754
 H         -2.1881833075       -0.3836438287       -1.9863477593
 H         -3.7189532964        0.9450501054        1.0214788503
 H         -2.5261939310        2.4992373131        2.5293317074
 H         -0.2032416713        3.1629150351        2.0398093952
 H          1.6371114554        3.1858511284        0.6778547613
 C          1.5477141563        2.9555085229       -1.4413932414
 C          1.0869058965        4.3485564888       -1.7435117892
 C          2.5521420514        4.0439173653       -1.6650599550
 H          3.1286016590        4.0324297317       -2.5779509824
 H          3.1030242990        4.3999244388       -0.8064295110
 H          0.6546599097        4.5493467813       -2.7116594671
 H          0.6436793216        4.9130940832       -0.9371867037
 H          1.4472158894        2.2102237503       -2.2188439113
