  62
        -98.93078334
 C         -2.4297256308       -0.7634155973        0.0771612785
 C         -2.9661264774        0.3492011602        0.7742562356
 C         -4.1911645778        0.9464945639        0.2249697963
 C         -4.7169950577        0.4324417253       -0.9014373550
 C         -6.0031658916        0.8682490027       -1.5438815041
 C         -7.2013112887        0.2852064886       -0.7675563614
 C         -8.0750122072        1.3320316260       -0.0760275993
 H         -8.6958531625        1.8271916761       -0.8256288902
 H         -8.7427294521        0.8014896320        0.6062010495
 C         -7.3266137761        2.4180406620        0.7028669601
 H         -8.0613937268        2.9155500694        1.3394897648
 H         -6.9522409227        3.1739607068        0.0110514892
 C         -6.1630816027        1.9356353715        1.5788786840
 H         -6.1768801680        2.5094572299        2.5078052898
 H         -6.2950502897        0.8882575769        1.8516173548
 C         -4.7679003265        2.1278018022        0.9549570120
 H         -4.7809948373        2.9969160874        0.2914635438
 H         -4.0526824477        2.3370497390        1.7559466766
 H         -6.8182690321       -0.4184587839       -0.0253547401
 H         -7.8311255992       -0.2895905621       -1.4482282651
 H         -6.0533596459        1.9544960103       -1.5675232741
 H         -5.9970405894        0.4956123146       -2.5683075323
 O         -4.1646038486       -0.6196284919       -1.5552619274
 C         -3.0136463186       -1.2491220079       -1.0936937557
 O         -2.6432643381       -2.1948208802       -1.8108137440
 H          0.9286417579       -0.3893387416        1.9937195248
 C          1.0778679589       -0.3655010365        0.9221282459
 C          0.0738673977       -0.8303142496        0.0848760067
 C          0.2746847561       -0.7746608221       -1.2906725364
 C          1.4568252872       -0.2742838610       -1.8060182861
 C          2.4580282996        0.1818370144       -0.9661770424
 C          2.2653354306        0.1379740350        0.4075514867
 N          3.2837660639        0.6041786317        1.2613261918
 S          4.7723973127       -0.1745582888        1.1525333141
 O          4.6111674582       -1.5434841847        0.7197636302
 O          5.4000677094        0.0248352321        2.4402839379
 C          5.6599866971        0.7544620304       -0.0790112499
 C          6.0768223156        0.1319076207       -1.2392880717
 C          6.7726074210        0.8712078052       -2.1831945734
 C          7.0378726499        2.2121713539       -1.9509159751
 C          6.6149190447        2.8215490672       -0.7788245671
 C          5.9203308616        2.0878792570        0.1695825609
 H          5.5813632758        2.5211064258        1.0956840894
 H          6.8244173012        3.8641500191       -0.6016020801
 H          7.5786335012        2.7854272369       -2.6873572232
 H          7.1033928338        0.3988814316       -3.0942277039
 H          5.8439989781       -0.9117951764       -1.3783925053
 H          2.9984159180        0.6678723953        2.2285154781
 H          3.3794932253        0.5736274530       -1.3649928995
 H          1.6003716027       -0.2399156893       -2.8753792590
 H         -0.5019332430       -1.1357119928       -1.9479129689
 C         -1.1893066150       -1.4019463826        0.6756123729
 H         -1.2142825413       -1.1074113436        1.7372704709
 C         -1.2197847821       -2.9240556250        0.6358935495
 C         -0.3523714358       -3.7575409067       -0.2532601187
 C         -0.0863377216       -3.7154488877        1.2197545372
 H         -0.3138168479       -4.5860841625        1.8160492036
 H          0.7861802225       -3.1703241742        1.5498802704
 H          0.3427958886       -3.2575364723       -0.9085374748
 H         -0.7873318001       -4.6474641193       -0.6814855864
 H         -2.2192664122       -3.3071768385        0.8175696144
 O         -2.4421124100        0.8161192341        1.8225471252
