  62
        -98.93739110
 C          1.6654751502        1.7144307315        0.1889607679
 C          1.9223445118        0.7412000744        1.1867730757
 C          2.8027876459       -0.3710226402        0.8065115787
 C          3.3080033680       -0.4065128681       -0.4399639540
 C          4.1692871892       -1.5021644294       -1.0006397063
 C          3.2912343978       -2.7096764659       -1.3851876683
 C          3.5523536622       -3.9673367789       -0.5564939721
 H          2.7499841339       -4.6763450738       -0.7705405889
 H          4.4877644597       -4.4226935863       -0.8884549324
 C          3.6445378272       -3.7637534240        0.9591618757
 H          3.5485715170       -4.7498042664        1.4184608543
 H          4.6385591040       -3.3969439139        1.2194578658
 C          2.5992481653       -2.8278821575        1.5804898308
 H          1.7055467842       -2.7764288716        0.9579355031
 H          2.2952203716       -3.2499007899        2.5404797209
 C          3.1063819125       -1.4001358850        1.8596821631
 H          4.1828002760       -1.4231146527        2.0508619778
 H          2.6211073257       -1.0265877836        2.7661125160
 H          2.2462837158       -2.4115256267       -1.2820145973
 H          3.4495861695       -2.9540341018       -2.4366454015
 H          4.6731200320       -1.1019641125       -1.8806384544
 H          4.9210343689       -1.7899663271       -0.2691297817
 O          3.0170136332        0.5290087551       -1.3783547521
 C          2.1710540527        1.5950466940       -1.1059413923
 O          1.9690463925        2.3381803455       -2.0836843764
 O          1.4353614229        0.8033218833        2.3490210307
 C          0.7392356868        2.8651707204        0.5529810260
 C         -0.6288352744        2.5341309177        0.0091739946
 C         -1.1038469116        3.0105579322       -1.2057696153
 C         -2.3438623818        2.6097339092       -1.6740473708
 C         -3.1343944613        1.7387006790       -0.9454452893
 C         -2.6639702951        1.2515459313        0.2684510915
 C         -1.4204329682        1.6511552914        0.7344524975
 H         -1.0459686534        1.2643391659        1.6732241289
 N         -3.4594761206        0.3811700902        1.0395383142
 S         -4.0495945220       -1.0317578034        0.3738014063
 O         -4.8942889644       -0.7092512085       -0.7477085601
 O         -4.6762664904       -1.7335672958        1.4696697610
 C         -2.6283125492       -1.9522614406       -0.1886480266
 C         -2.0260712568       -1.6015369474       -1.3807998979
 C         -0.9260391697       -2.3260738957       -1.8117008109
 C         -0.4540560533       -3.3848247466       -1.0508728995
 C         -1.0603506883       -3.7147975241        0.1514634832
 C         -2.1556951014       -2.9893118597        0.5908321190
 H         -2.6650016448       -3.2181399895        1.5130651780
 H         -0.6850492997       -4.5340216453        0.7435946577
 H          0.3885093739       -3.9600723920       -1.4016786391
 H         -0.4441247943       -2.0629606288       -2.7402522351
 H         -2.4266062092       -0.7822758668       -1.9555228563
 H         -3.0642891775        0.1853894176        1.9484510497
 H         -4.1000552781        1.4198892089       -1.3033064571
 H         -2.7028350657        2.9849632273       -2.6206660421
 H         -0.4934172943        3.6774532007       -1.7921293947
 H          0.6742335060        2.8456754759        1.6495445769
 C          1.2612654433        4.2190125543        0.1264365612
 C          0.6415278437        5.4510905337        0.7127352141
 C          2.0289039120        5.0482269935        1.1102854128
 H          2.8605950564        5.6348211375        0.7499103058
 H          2.1789553401        4.6423256763        2.1001861676
 H          0.5179447676        6.3172903231        0.0811361291
 H         -0.1519754126        5.3153410560        1.4322615966
 H          1.5840246053        4.2559336600       -0.9057084175
