  62
        -98.93601794
 C         -2.3179755201       -1.1313066717        0.1573024553
 C         -3.5494538656       -0.9026776297        0.8237903648
 C         -4.4855607864        0.0474757708        0.2010718689
 C         -4.1280006416        0.6758026847       -0.9338244240
 C         -4.8807249514        1.6601385171       -1.8039387445
 C         -6.0979353109        2.4073212498       -1.2639160026
 C         -5.8008952064        3.3820883912       -0.1255155785
 H         -5.2035344722        4.2079399274       -0.5202025339
 H         -6.7498424729        3.7949965509        0.2238031302
 C         -5.0469485249        2.7957067845        1.0657754112
 H         -4.0433347731        2.4975182272        0.7543281660
 H         -4.9280156798        3.5894519848        1.8083657525
 C         -5.7270095061        1.6133118978        1.7542611294
 H         -6.7486970773        1.8847206149        2.0262716042
 H         -5.1769512017        1.4119458531        2.6772837471
 C         -5.7639451913        0.3039238874        0.9452707703
 H         -5.8824840944       -0.5242287220        1.6497650034
 H         -6.6128866161        0.2801792070        0.2661246826
 H         -6.4995650507        2.9880412891       -2.0988649278
 H         -6.8717524541        1.7051266193       -0.9679798915
 H         -4.1337822975        2.3867718353       -2.1392706353
 H         -5.1867937172        1.0999241320       -2.6946543245
 O         -2.9262133682        0.4384116936       -1.5328475897
 C         -1.9896750433       -0.4450310713       -1.0122302589
 O         -0.9474544014       -0.5134522557       -1.6907804075
 H          0.9093786391       -2.1810625960       -0.7306456453
 C          1.0232109707       -1.5151730134        0.1105801116
 C         -0.0184979622       -1.3662018263        1.0117850245
 C          0.1357592744       -0.4772954682        2.0714783485
 C          1.3064090548        0.2411424379        2.2243557590
 C          2.3400611781        0.0998058668        1.3148349163
 C          2.1870431801       -0.7693263667        0.2434948920
 N          3.2238006713       -0.9026665456       -0.6961131464
 S          3.9482371882        0.4939467508       -1.2828213228
 O          3.0550433463        1.6287133792       -1.2580773760
 O          4.4877357597        0.1243472017       -2.5738694626
 C          5.3019130119        0.7625856292       -0.1542733051
 C          5.4632848520        1.9965695954        0.4447538765
 C          6.5283881592        2.1879912571        1.3112550911
 C          7.4100339808        1.1476815663        1.5609696537
 C          7.2360486326       -0.0849485938        0.9493440622
 C          6.1739132607       -0.2823117997        0.0815731613
 H          6.0047602483       -1.2228923061       -0.4152325286
 H          7.9236599559       -0.8915773581        1.1462317038
 H          8.2372465100        1.2987146816        2.2363799030
 H          6.6644979108        3.1458807561        1.7871709736
 H          4.7488377790        2.7742293484        0.2250459986
 H          2.9899593441       -1.5218460560       -1.4593337006
 H          3.2484520698        0.6708649959        1.4158766169
 H          1.4146430809        0.9233872573        3.0538522774
 H         -0.6812387933       -0.3476491038        2.7679478668
 C         -1.3344057645       -2.0762303160        0.8281496484
 H         -1.7696228520       -2.2523731890        1.8248712069
 C         -1.1925644873       -3.4423729002        0.1753202697
 C         -2.3977596433       -4.1520327876       -0.3639125372
 C         -1.3256210839       -3.6803355322       -1.2976596692
 H         -0.6818948198       -4.4205771423       -1.7510967003
 H         -1.5287957427       -2.8345000865       -1.9350312900
 H         -2.4988703979       -5.2118157913       -0.1854041066
 H         -3.3341693791       -3.6132523007       -0.3524704667
 H         -0.4643538157       -4.0564760339        0.6970294213
 O         -3.8602205073       -1.4756791401        1.9015760260
