  62
        -98.93342253
 C         -1.6163308284       -0.3005337298        0.0150196102
 C         -2.7425129872       -1.1067669944        0.3126847421
 C         -4.0729345611       -0.4914605339        0.1511823831
 C         -4.1513364449        0.7871315533       -0.2575354614
 C         -5.3780789295        1.6314125730       -0.4942550538
 C         -6.5448841403        0.9614875006       -1.2361861754
 C         -7.7556414093        0.6850834482       -0.3429845931
 H         -7.8872203654        1.5306999188        0.3353519125
 H         -8.6476394637        0.6299247293       -0.9710394221
 C         -7.6820705181       -0.6070087623        0.4687992847
 H         -8.5294836554       -0.6123594476        1.1584173070
 H         -7.8032152312       -1.4614112438       -0.2006845753
 C         -6.3947402530       -0.8024607924        1.2721877472
 H         -6.0841363766        0.1360213022        1.7301631151
 H         -6.6120801816       -1.4974228261        2.0860893158
 C         -5.2396045853       -1.3931322640        0.4499651280
 H         -5.6215728596       -1.8004020892       -0.4907433134
 H         -4.8016516286       -2.2399798864        0.9875344256
 H         -6.8619879686        1.6354318158       -2.0337860346
 H         -6.2048436642        0.0414038902       -1.7090428036
 H         -5.7233281335        2.0170867321        0.4683558636
 H         -5.0218797584        2.4932914520       -1.0633314512
 O         -3.0399693201        1.5392136509       -0.4971088167
 C         -1.7536627391        1.0355533409       -0.3614653803
 O         -0.8621636555        1.8703571076       -0.6002153397
 O         -2.6418805907       -2.2991780888        0.7079682662
 C         -0.2441023419       -0.9295117197        0.1769590872
 C          0.6757516298       -0.0110306671        0.9387964502
 C          0.4168212117        0.2339220027        2.2852237893
 C          1.2280410840        1.0772508654        3.0186011039
 C          2.3290072480        1.6765517928        2.4315307279
 C          2.5943746539        1.4406225483        1.0884580391
 C          1.7698140525        0.6019304937        0.3502581584
 H          1.9683479467        0.4761609513       -0.7001804981
 N          3.7002233184        2.0321593726        0.4651928236
 S          4.5200298722        1.2346218745       -0.7461986992
 O          5.8512613031        1.8037210151       -0.7103056533
 O          3.8271829872        1.3504917561       -2.0043818523
 C          4.5795159899       -0.4762456948       -0.2390194463
 C          5.0818512354       -0.7793202416        1.0111022436
 C          5.1250872295       -2.1042650849        1.4132277296
 C          4.6712410111       -3.1002523597        0.5620635296
 C          4.1788907204       -2.7813468087       -0.6936969675
 C          4.1307894418       -1.4569677860       -1.0994380529
 H          3.7492519636       -1.1635598392       -2.0645681691
 H          3.8286436260       -3.5571139655       -1.3561651595
 H          4.7021479900       -4.1311329668        0.8776746285
 H          5.5103491902       -2.3562689026        2.3880225924
 H          5.4346213383        0.0154846331        1.6476329493
 H          4.3121929112        2.5598534443        1.0686424798
 H          2.9669430100        2.3339689896        3.0023060859
 H          1.0088495931        1.2650129212        4.0588780447
 H         -0.4408455594       -0.2376515253        2.7452599736
 H         -0.4271770335       -1.8195976844        0.8017598314
 C          0.3714256516       -1.4323345543       -1.1198844097
 C         -0.4827364477       -1.9550158749       -2.2345101330
 C          0.2720952936       -0.6725082287       -2.4070383220
 H          1.1303758191       -0.6571552345       -3.0637492645
 H         -0.2764799783        0.2566485825       -2.4005937961
 H         -0.1472607400       -2.8278677454       -2.7738108415
 H         -1.5546448208       -1.9021251098       -2.1110295251
 H          1.3039328184       -1.9589670472       -0.9395025005
