  62
        -98.93970661
 C         -1.7208980809       -1.2264172792        0.1777904312
 C         -1.8089515502        0.0546238211        0.7813680706
 C         -2.8130305096        0.9710197714        0.2276800301
 C         -3.5485872898        0.5742022213       -0.8266647798
 C         -4.6372416593        1.3839490117       -1.4680239402
 C         -6.0022093395        1.0799441227       -0.8351412502
 C         -5.9988145496        1.1337998834        0.6925589398
 H         -7.0194087697        0.9366456142        1.0278403999
 H         -5.3732024500        0.3246520833        1.0764362502
 C         -5.5164819389        2.4680488134        1.2787176992
 H         -5.5616727184        3.2460558731        0.5158370189
 H         -6.1949734787        2.7630295642        2.0820313891
 C         -4.1095961989        2.4256070529        1.8779480493
 H         -4.0348329194        1.5874485332        2.5754953997
 H         -3.9583406184        3.3432904331        2.4528331389
 C         -2.9553796289        2.3210349218        0.8727568394
 H         -3.0551128884        3.1023497715        0.1166666591
 H         -2.0257954989        2.4887111115        1.4244563694
 H         -6.3114755001        0.0780558527       -1.1418973497
 H         -6.7304938991        1.7936959929       -1.2245181005
 H         -4.6748172994        1.1305504612       -2.5287667101
 H         -4.4053803887        2.4421378416       -1.3647364007
 O         -3.4082401305       -0.6426617290       -1.4062146092
 C         -2.4952856310       -1.5772721493       -0.9289453187
 O         -2.4886857116       -2.6408759796       -1.5733726982
 O         -1.0801720300        0.4096346412        1.7464068304
 C         -0.6859631214       -2.1719003795        0.7634291917
 C          0.6431670788       -1.8898658306        0.1117872316
 C          0.7992889888       -1.9730009713       -1.2689222584
 C          2.0092788590       -1.6542573222       -1.8575106184
 C          3.0778255492       -1.2260202125       -1.0881508586
 C          2.9241892292       -1.1206895818        0.2874117514
 C          1.7158598490       -1.4642894608        0.8796524615
 H          1.5985435890       -1.3689555802        1.9503903314
 N          3.9895182994       -0.6301756020        1.0642173012
 S          4.6941402102        0.7943539974        0.5288985606
 O          5.6924735801        0.4907536663       -0.4659387192
 O          5.1783250906        1.4532525777        1.7214547903
 C          3.3638243308        1.7218509278       -0.2187977099
 C          2.2333987109        1.9749621387        0.5326685899
 C          1.1762546513        2.6512576591       -0.0525177405
 C          1.2682149116        3.0679535784       -1.3713664307
 C          2.4146202715        2.8172226074       -2.1093947605
 C          3.4718668011        2.1328306471       -1.5317336801
 H          4.3751641010        1.9047544963       -2.0739207700
 H          2.4836046618        3.1450381369       -3.1341602707
 H          0.4397862719        3.5894241586       -1.8243486610
 H          0.2806887914        2.8290421798        0.5211321794
 H          2.1761525707        1.6425157093        1.5566080700
 H          3.7789184394       -0.5733372214        2.0504399611
 H          4.0235880294       -0.9609714732       -1.5325653287
 H          2.1201992690       -1.7297469428       -2.9284946284
 H         -0.0421786413       -2.2817948111       -1.8713304983
 H         -0.6015347413       -1.8742786191        1.8207648015
 C         -1.0919979422       -3.6371075193        0.7379518123
 C         -0.3716275328       -4.6864759301       -0.0492854671
 C         -0.2380085528       -4.6508994794        1.4415548528
 H         -0.7186004033       -5.4195177289        2.0276279732
 H          0.7024770573       -4.3087488198        1.8477150027
 H         -0.9666111532       -5.4654634099       -0.5009722268
 H          0.4800378774       -4.3923431708       -0.6419117772
 H         -2.1655478223       -3.7638376987        0.8273155223
