  62
        -98.94562828
 C          2.3954093288        0.8644626901        0.1992364574
 C          1.9941658324       -0.0201925755       -0.8310271650
 C          2.4217834221       -1.4180621977       -0.6737955650
 C          3.1334570433       -1.7728791467        0.4117387373
 C          3.5725753787       -3.1726000916        0.7288132614
 C          2.5233556772       -3.9036045420        1.5787865762
 C          1.1010016009       -3.8034021194        1.0265749493
 H          0.7694784651       -2.7634048812        1.0785861256
 H          0.4535321276       -4.3801823136        1.6907109329
 C          0.9443482833       -4.3114469998       -0.4133054184
 H          0.0526817497       -4.9389887056       -0.4674333738
 H          1.7963267858       -4.9384924468       -0.6782939507
 C          0.7812010693       -3.2070669487       -1.4589301111
 H         -0.0100269547       -2.5200292303       -1.1486780970
 H          0.4646313879       -3.6710475041       -2.3962282927
 C          2.0387857675       -2.3832170452       -1.7601972182
 H          1.8287649033       -1.7707872541       -2.6417217493
 H          2.8716249809       -3.0496608219       -1.9934739041
 H          2.5325145477       -3.4752861517        2.5839937427
 H          2.8123326682       -4.9533442785        1.6557556283
 H          3.7444839051       -3.7134550367       -0.1996488933
 H          4.5084522077       -3.1218412857        1.2878547395
 O          3.4907729366       -0.8952767696        1.3851027154
 C          3.1308124178        0.4406567886        1.3049824014
 O          3.5112460249        1.1361539399        2.2696196880
 H          0.1798998578        1.0151026380        1.5245841240
 C         -0.2863357928        1.7189729621        0.8453506992
 C          0.5197902982        2.4923010172        0.0190910477
 C         -0.0903907282        3.3964706118       -0.8404054252
 C         -1.4691971693        3.5168185732       -0.8667883119
 C         -2.2673999832        2.7467258651       -0.0416581767
 C         -1.6687432760        1.8337532326        0.8183933181
 N         -2.4541906067        1.0560487892        1.6854108121
 S         -3.8621077244        0.3113480935        1.1822463451
 O         -4.8289891705        1.3167763291        0.8197624151
 O         -4.2235999065       -0.5604569215        2.2763680072
 C         -3.4358681728       -0.6644907041       -0.2474099487
 C         -3.0736652189       -1.9834312589       -0.0567209003
 C         -2.7300528051       -2.7508871235       -1.1573704148
 C         -2.7401280330       -2.1847089414       -2.4231801577
 C         -3.1000143808       -0.8578925324       -2.5973252693
 C         -3.4558276272       -0.0878069347       -1.5014400449
 H         -3.7549486627        0.9417950094       -1.6035185848
 H         -3.1046557897       -0.4192998842       -3.5820904959
 H         -2.4658544614       -2.7817427873       -3.2784037447
 H         -2.4540496934       -3.7846587149       -1.0250960508
 H         -3.0842856526       -2.3861891500        0.9434969204
 H         -1.9199704049        0.4362354224        2.2756105284
 H         -3.3409005201        2.8436031789       -0.0423499590
 H         -1.9299692277        4.2260528554       -1.5375890128
 H          0.5130275694        4.0086764405       -1.4899532032
 C          2.0179189704        2.3318166923        0.1186552269
 H          2.3428000260        2.7832830298        1.0681341228
 C          2.7722031249        2.9943180010       -1.0164081196
 C          3.1637170152        4.4378166116       -0.9275130749
 C          4.2070185987        3.3693800477       -0.8039963992
 H          4.9038845913        3.2287976828       -1.6165903863
 H          4.6299244408        3.1741735474        0.1711322902
 H          2.8861160142        4.9784983226       -0.0352220022
 H          3.1482360026        5.0335285400       -1.8278039476
 H          2.4982303093        2.5944858794       -1.9859141979
 O          1.3143966462        0.3361412616       -1.8274471775
