  62
        -98.94443172
 C         -1.9358484908       -1.0914490119       -0.1992679724
 C         -2.4184739769        0.0759667781       -0.8378089721
 C         -3.8753145362        0.2713820163       -0.7927184474
 C         -4.6474393816       -0.6504160900       -0.1889446681
 C         -6.1358345153       -0.5489349890       -0.0255797969
 C         -6.5038003314        0.1376756613        1.2972725123
 C         -5.7522079088        1.4457569960        1.5443333927
 H         -6.1139396252        1.8549660206        2.4900978696
 H         -4.6894399202        1.2284419803        1.6734410728
 C         -5.9213125509        2.4943745921        0.4361340557
 H         -6.1106158069        3.4653923108        0.8985650168
 H         -6.7917695172        2.2514679061       -0.1743985534
 C         -4.6995440184        2.6632460581       -0.4691340392
 H         -3.8062323553        2.8139845657        0.1426198437
 H         -4.8418431042        3.5672604427       -1.0674159489
 C         -4.4257132783        1.5095827473       -1.4422932153
 H         -5.3318857154        1.2803935320       -2.0068607688
 H         -3.6574470965        1.8442837341       -2.1457239394
 H         -6.2772715023       -0.5474942951        2.1173911984
 H         -7.5786583993        0.3274555360        1.3002036377
 H         -6.5516893725       -1.5578602887       -0.0289923637
 H         -6.5508147327        0.0072345077       -0.8638237086
 O         -4.1475042659       -1.7705316364        0.3929159830
 C         -2.7840143107       -2.0130632434        0.4143846109
 O         -2.4559310092       -3.0637697469        1.0017021251
 O         -1.6761108789        0.9124621438       -1.4154667346
 C         -0.4451473482       -1.3826820558       -0.1794845666
 C          0.2913087918       -0.2224219049        0.4436877413
 C         -0.1157472651        0.2241904244        1.6992971553
 C          0.5037610887        1.3003379848        2.3025161581
 C          1.5528125649        1.9477643543        1.6726324341
 C          1.9730021472        1.5061735196        0.4246097522
 C          1.3487373958        0.4209094234       -0.1784088703
 H          1.6843356861        0.1147950136       -1.1543017727
 N          3.0222143003        2.1580099525       -0.2417837693
 S          4.2096867562        1.2852710556       -1.0275920463
 O          5.2858180617        2.2328205294       -1.2174147416
 O          3.6839317991        0.6723868313       -2.2199185470
 C          4.6976572697        0.0400672044        0.1518588468
 C          4.2240091907       -1.2494648570        0.0264984934
 C          4.5658457452       -2.1843197989        0.9911645672
 C          5.3692958915       -1.8150902958        2.0584682710
 C          5.8417326331       -0.5157656233        2.1673954042
 C          5.5010581270        0.4235870326        1.2082868361
 H          5.8576096623        1.4399348717        1.2503105389
 H          6.4711157465       -0.2337331538        2.9959841647
 H          5.6311593963       -2.5456510871        2.8075170607
 H          4.2018847009       -3.1958773455        0.9060326373
 H          3.6052637376       -1.4998690971       -0.8190469299
 H          3.4194913227        2.9358788554        0.2640332914
 H          2.0320859933        2.7961877039        2.1369482627
 H          0.1695501142        1.6397739604        3.2714278420
 H         -0.9381966007       -0.2803837481        2.1887441739
 H         -0.3170514800       -2.2609080755        0.4699949622
 C          0.0313600777       -1.7359335014       -1.5725233704
 C          1.1753903631       -2.6843568943       -1.7612354432
 C         -0.2201375599       -3.1175849725       -2.0943196465
 H         -0.4935076289       -3.2348755938       -3.1322194633
 H         -0.7120411570       -3.8146909757       -1.4313289212
 H          1.8658879765       -2.5036468149       -2.5721748927
 H          1.6274973583       -3.1007721098       -0.8735911716
 H         -0.0737735335       -0.9155215373       -2.2736447204
