  62
        -98.93735074
 C          1.9184207368        1.4108559501        0.0152697436
 C          2.5383776866        0.6903312581        1.0628275253
 C          3.7400167938       -0.0721085906        0.7002303945
 C          4.1794207216       -0.0545700736       -0.5712609327
 C          5.4160150745       -0.7283781080       -1.1050127416
 C          5.4209811290       -2.2691339738       -1.0769048573
 C          6.0759442187       -2.8774972695        0.1694734151
 H          6.6613985452       -3.7484999416       -0.1318685156
 H          6.7802867454       -2.1551992246        0.5839489749
 C          5.1161282235       -3.3440791634        1.2681583249
 H          4.6766042445       -4.3005376596        0.9754413055
 H          5.7020222066       -3.5156140501        2.1737146818
 C          3.9649255353       -2.3932145777        1.5963217497
 H          3.4837077214       -2.7438723040        2.5117358703
 H          3.2084754992       -2.4497568056        0.8092484829
 C          4.3768143608       -0.9175299102        1.7647898885
 H          4.0166766014       -0.5379008178        2.7230887712
 H          5.4605338564       -0.8154009802        1.7395791835
 H          4.4023071745       -2.6389687732       -1.1927527559
 H          5.9841101136       -2.5986112651       -1.9515582319
 H          5.5049120272       -0.3918307696       -2.1399515413
 H          6.2833700781       -0.3540700054       -0.5564868833
 O          3.5439395323        0.6403772096       -1.5537036893
 C          2.3918389809        1.3695409789       -1.2963645366
 O          1.9026772759        1.9243568716       -2.2974863584
 H         -0.0806384314       -0.3288342644        0.3653572648
 C         -0.7402345871        0.2488906618       -0.2704174313
 C         -0.5082965107        1.6115139014       -0.4207161176
 C         -1.3710390334        2.3443250760       -1.2237873299
 C         -2.4157981278        1.7182633356       -1.8832668878
 C         -2.6293135462        0.3593398653       -1.7495225054
 C         -1.7839177041       -0.3799200750       -0.9305088823
 N         -1.9998960694       -1.7588149272       -0.7713632529
 S         -3.5694383875       -2.2926351263       -0.5472577953
 O         -3.4451278265       -3.5310833969        0.1890464924
 O         -4.2377892347       -2.3838846532       -1.8214379839
 C         -4.3522042681       -1.0424643689        0.4566063024
 C         -5.4491185363       -0.3579012131       -0.0252058756
 C         -6.0212838437        0.6296204485        0.7608424977
 C         -5.4864249288        0.9164543764        2.0069104843
 C         -4.3859862313        0.2169816489        2.4787634539
 C         -3.8113376102       -0.7726357291        1.6982438891
 H         -2.9578439743       -1.3367116620        2.0395552551
 H         -3.9707863630        0.4404120151        3.4484631796
 H         -5.9286379926        1.6889222892        2.6159717305
 H         -6.8782402670        1.1734323819        0.3975739248
 H         -5.8304063043       -0.6111467371       -1.0009725285
 H         -1.3624459808       -2.2040628085       -0.1283516784
 H         -3.4258577873       -0.1437986117       -2.2730817106
 H         -3.0709269721        2.2976766097       -2.5154650129
 H         -1.2196099482        3.4038884681       -1.3448717213
 C          0.6635627926        2.2103350288        0.3182667772
 H          0.4885531170        2.0755510300        1.3960271966
 C          0.8779333407        3.6823014694        0.0406984952
 C          0.0746140353        4.7097449289        0.7791509091
 C          1.5289804945        4.5298050372        1.0910852674
 H          2.2246375053        5.2938650445        0.7780876741
 H          1.7995202718        4.0492774045        2.0200688302
 H         -0.2285890962        5.6025597709        0.2536834010
 H         -0.6454720989        4.3558808645        1.5010772169
 H          1.1400816275        3.8788292448       -0.9925116814
 O          2.1066095847        0.6834197721        2.2478793729
