  62
        -98.94124530
 C          2.0198482924       -1.2322044257       -0.1260094877
 C          2.7949027271       -0.6547077969       -1.1639279320
 C          3.9713004830        0.1139980406       -0.7441507544
 C          4.2440010175        0.2513952767        0.5659277100
 C          5.4226103503        0.9789590421        1.1537396030
 C          5.2153740154        2.4930664054        1.2956085340
 C          5.2377481127        3.2785530198       -0.0163062704
 H          5.2984544036        4.3369087168        0.2449886505
 H          6.1413461977        3.0286047752       -0.5731844806
 C          4.0055978524        3.0600902772       -0.9055695164
 H          3.2018657938        2.6195587820       -0.3103389046
 H          3.6420915610        4.0246578777       -1.2676254280
 C          4.2561739405        2.1807248421       -2.1309633639
 H          4.9625149667        2.6778126159       -2.7994428453
 H          3.3113240915        2.0630021539       -2.6678672467
 C          4.7934866225        0.7808267039       -1.8054576915
 H          4.7293262682        0.1707858030       -2.7098337972
 H          5.8369422515        0.8410380131       -1.4969541354
 H          6.0154923321        2.8729120049        1.9350759653
 H          4.2677037393        2.6693698698        1.8101684802
 H          6.3099443034        0.7869334427        0.5497538470
 H          5.5814666277        0.5593612998        2.1494905377
 O          3.4582579870       -0.2876252266        1.5337377839
 C          2.3147234689       -1.0159963176        1.2214347412
 O          1.6774803800       -1.3982417207        2.2191287371
 O          2.5125873283       -0.7733381936       -2.3863335385
 C          0.7889514093       -2.0248468537       -0.5290454534
 C         -0.4121065260       -1.5429056177        0.2450905411
 C         -1.1805862161       -2.3547601154        1.0674927102
 C         -2.2602320712       -1.8302763256        1.7577036296
 C         -2.6006337030       -0.4960568795        1.6392213584
 C         -1.8453425765        0.3229867011        0.8084377459
 C         -0.7696430855       -0.2058284453        0.1129095290
 H         -0.1776554445        0.4348790331       -0.5296972154
 N         -2.1869099175        1.6783681360        0.6717900169
 S         -3.8022937298        2.0821252135        0.5198029020
 O         -3.8105828141        3.3278140212       -0.2152302155
 O         -4.4215698903        2.1172955677        1.8212740971
 C         -4.5253877862        0.7750936149       -0.4565028224
 C         -5.5549598641        0.0166321900        0.0618405706
 C         -6.0825823326       -1.0105460442       -0.7042902453
 C         -5.5711821776       -1.2622683943       -1.9676573398
 C         -4.5386681925       -0.4888638270       -2.4762032542
 C         -4.0091126529        0.5406542322       -1.7156477631
 H         -3.2096968804        1.1628505424       -2.0853951713
 H         -4.1418865599       -0.6855295703       -3.4593070361
 H         -5.9788985209       -2.0649833123       -2.5614933443
 H         -6.8865905727       -1.6120567173       -0.3120600859
 H         -5.9198905229        0.2447067538        1.0500449240
 H         -1.6127198062        2.1882817156        0.0176393182
 H         -3.4242195124       -0.0705850885        2.1892811196
 H         -2.8409208037       -2.4693960933        2.4050484835
 H         -0.9182941922       -3.3921405245        1.1916996719
 H          0.6346239268       -1.7572369600       -1.5881790422
 C          0.9706718573       -3.5344792291       -0.4937384703
 C          2.3232791851       -4.1526477877       -0.6802505673
 C          1.6344363050       -4.2440298687        0.6467207810
 H          1.2394428320       -5.2022730529        0.9515328162
 H          2.0032051559       -3.6448625744        1.4639274729
 H          2.4022290253       -5.0440981272       -1.2842628338
 H          3.1697425645       -3.4872070764       -0.7712298365
 H          0.1409307222       -4.0501137636       -0.9673491699
