  62
        -98.94008596
 C          2.2855135441        1.0048211268       -0.4609944543
 C          3.2916266749        0.4836000870        0.3944516733
 C          3.8080453337       -0.8475741038        0.0657070177
 C          3.3275292202       -1.4970054163       -1.0095797299
 C          3.7576590435       -2.8572484808       -1.4886620702
 C          3.0572557260       -4.0190712828       -0.7707987951
 C          3.5118446975       -4.2620449889        0.6690801510
 H          3.1114543715       -5.2316381180        0.9714631050
 H          4.5994820500       -4.3347799174        0.6974859152
 C          3.0383311395       -3.1991034745        1.6705315943
 H          2.2163936978       -2.6261974761        1.2332406486
 H          2.6442262234       -3.6899041970        2.5633136124
 C          4.1284066484       -2.2307465909        2.1302736129
 H          4.8912178756       -2.7766548651        2.6898218861
 H          3.6739819474       -1.4988131796        2.8027955648
 C          4.8130017397       -1.4644823876        0.9912922215
 H          5.4808357552       -2.1257482553        0.4397045652
 H          5.4014433006       -0.6541383791        1.4283343078
 H          3.2533990894       -4.9248317818       -1.3494445022
 H          1.9792577399       -3.8395387552       -0.7888869163
 H          3.5060383538       -2.9062252476       -2.5502816922
 H          4.8381105525       -2.9587146205       -1.3813140700
 O          2.3808500370       -0.9584521151       -1.8212066122
 C          1.8181859997        0.2874199980       -1.5634448007
 O          0.9516028933        0.6148890140       -2.3981927094
 O          3.7463717423        1.1153538154        1.3862578380
 C          1.7388287021        2.3691525745       -0.0855486951
 C          0.5427216893        2.2633172805        0.8328115281
 C          0.4352091225        3.0919026068        1.9439336886
 C         -0.6756976074        3.0269891185        2.7652642401
 C         -1.6992016704        2.1392171814        2.4914758462
 C         -1.5958221148        1.2954050407        1.3896872470
 C         -0.4793815825        1.3629164580        0.5684879486
 H         -0.4182096761        0.7117580014       -0.2905019923
 N         -2.6017826695        0.3533697358        1.1290889262
 S         -2.8550434266       -0.2078170511       -0.4413636996
 O         -1.9088580879       -1.2615572068       -0.7102431439
 O         -2.8974425248        0.9003285588       -1.3673059949
 C         -4.4904546518       -0.8970639718       -0.2566705121
 C         -4.6291615651       -2.1898524728        0.2112992740
 C         -5.9033353102       -2.7077886705        0.3827573041
 C         -7.0118720471       -1.9287857163        0.0862499037
 C         -6.8576455227       -0.6337087343       -0.3852178390
 C         -5.5861815491       -0.1099215725       -0.5580746669
 H         -5.4164856421        0.8868728504       -0.9323421960
 H         -7.7206815486       -0.0314813705       -0.6190874752
 H         -8.0020623940       -2.3346807475        0.2200264229
 H         -6.0266150761       -3.7155468322        0.7452787692
 H         -3.7382743513       -2.7594889607        0.4190526157
 H         -3.4685741640        0.5503797541        1.6098051731
 H         -2.5685154291        2.0876914583        3.1288783220
 H         -0.7476407081        3.6760317852        3.6245474591
 H          1.2348486928        3.7824506976        2.1661937652
 H          2.5460741675        2.8580841527        0.4787658112
 C          1.3817165049        3.2488551402       -1.2679530481
 C          1.4608716107        4.7383099266       -1.1261271419
 C          2.4618368047        4.0112739813       -1.9720876851
 H          2.4052101716        4.1056991018       -3.0458943716
 H          3.4691760534        3.9081916732       -1.5954615214
 H          0.7117538009        5.3393866123       -1.6180279885
 H          1.7950915261        5.1368489476       -0.1804937193
 H          0.5820877616        2.8417865281       -1.8744538355
