  62
        -98.92894529
 C         -2.1846017762        0.2754113801       -0.3928941814
 C         -3.4081964288        0.4103468418       -1.0927730922
 C         -4.6442610523        0.0980571069       -0.3518473593
 C         -4.5499061578       -0.2978327695        0.9299043583
 C         -5.6525182032       -0.6711186566        1.8883783032
 C         -6.8954733037        0.2321232286        1.8972614537
 C         -8.1354902939       -0.4320956580        1.2960460136
 H         -8.1555497780       -1.4780708197        1.6089925408
 H         -9.0245459771        0.0487924374        1.7100181720
 C         -8.2380698740       -0.3587265661       -0.2263947681
 H         -9.0813643825       -0.9828093305       -0.5313283629
 H         -8.4685188780        0.6664503343       -0.5242935399
 C         -6.9914724006       -0.8131924400       -0.9880445293
 H         -6.5607147141       -1.6987766551       -0.5221501665
 H         -7.3017463779       -1.1016875105       -1.9946108758
 C         -5.9216731713        0.2804668071       -1.1253533170
 H         -6.3499522990        1.2554577280       -0.8750900627
 H         -5.6020142636        0.3529410652       -2.1696616093
 H         -7.1176616920        0.4806429621        2.9363109408
 H         -6.6785487060        1.1667627740        1.3823986855
 H         -5.9468629186       -1.7048328768        1.6902816279
 H         -5.1824418352       -0.6660374762        2.8744219988
 O         -3.3472018877       -0.4481663851        1.5545873921
 C         -2.1410501530       -0.1834438026        0.9233118395
 O         -1.1430421902       -0.3976129349        1.6354821270
 O         -3.4676553573        0.7706316213       -2.2995288741
 C         -0.9057508965        0.5906427588       -1.1455731868
 C          0.1217145714       -0.4923654367       -0.9343968054
 C         -0.1807997287       -1.7901331627       -1.3411256566
 C          0.7334973010       -2.8125077267       -1.1826094534
 C          1.9812765771       -2.5593672395       -0.6396364903
 C          2.2915904518       -1.2697851946       -0.2278017310
 C          1.3618819550       -0.2484685251       -0.3686877722
 H          1.6250307796        0.7352440583       -0.0174346908
 N          3.5413479764       -0.9761126881        0.3400069778
 S          4.2385831630        0.5195343342       -0.0146259083
 O          3.7853437554        1.4928728143        0.9469625948
 O          4.0212064409        0.8484690117       -1.4056483829
 C          5.9626549631        0.1556903801        0.2658822789
 C          6.4567520607        0.2095126932        1.5556271997
 C          7.7891041065       -0.1020535742        1.7758355301
 C          8.6005771915       -0.4607839884        0.7096424992
 C          8.0911966367       -0.5084281542       -0.5793525038
 C          6.7593651165       -0.1993020060       -0.8065202680
 H          6.3220503284       -0.2135157149       -1.7919167965
 H          8.7252269327       -0.7839599116       -1.4065955533
 H          9.6373439388       -0.7014586942        0.8840832016
 H          8.1893715260       -0.0629957466        2.7760756659
 H          5.7908538196        0.5021958464        2.3507523081
 H          4.2035509925       -1.7352172176        0.2590385639
 H          2.7016856629       -3.3550944266       -0.5252244029
 H          0.4796100855       -3.8141271291       -1.4961243250
 H         -1.1509772594       -1.9854257028       -1.7784009843
 H         -1.2017641608        0.5661154368       -2.2086905962
 C         -0.3572303750        1.9854193969       -0.8852904556
 C         -1.2618931484        3.1240335235       -0.5242535408
 C         -0.3003265236        2.5813020368        0.4880394603
 H          0.5660323135        3.1713618314        0.7514777942
 H         -0.6856522253        1.9909357995        1.3046714877
 H         -1.0641536762        4.0931983701       -0.9568658922
 H         -2.3123446498        2.9063704970       -0.3966848581
 H          0.4720789469        2.2216427253       -1.5470277365
