  62
        -98.93492989
 C          1.7318718170        1.0351030511        0.1838153161
 C          2.3432517953       -0.0826944523        0.8030620569
 C          3.7380902375       -0.3805707605        0.4294208362
 C          4.3434175138        0.3921540721       -0.4900148179
 C          5.7460702785        0.2952803976       -1.0348161658
 C          6.2538572621       -1.1112016592       -1.3872689372
 C          7.3318325881       -1.6258591297       -0.4317868764
 H          7.9293831408       -2.3782289245       -0.9513614813
 H          7.9977205514       -0.7977125281       -0.1804785086
 C          6.8086349982       -2.2609327672        0.8553718502
 H          6.3534059379       -3.2262887793        0.6232250485
 H          7.6680807809       -2.4545246523        1.5016037514
 C          5.7907906792       -1.4228758181        1.6317672468
 H          6.0806023995       -0.3727366089        1.6313567503
 H          5.8068107031       -1.7572790975        2.6713282735
 C          4.3508590986       -1.5700866213        1.1169891780
 H          4.2775075935       -2.4374069846        0.4540174328
 H          3.6799894716       -1.7796878198        1.9562071333
 H          6.6851503039       -1.0679420027       -2.3887054066
 H          5.4180274712       -1.8081713318       -1.4266784802
 H          6.4271888794        0.7673030979       -0.3223453178
 H          5.7458030185        0.9243353358       -1.9278351101
 O          3.7161856479        1.4559330841       -1.0640956174
 C          2.4147932931        1.8128723857       -0.7506285108
 O          2.0139502854        2.8201047563       -1.3628134384
 O          1.7498240218       -0.8032694027        1.6517392651
 C          0.2947213630        1.3484913243        0.5691151815
 C         -0.6399362736        0.9044922939       -0.5306145766
 C         -0.8508098042        1.6656603277       -1.6760934291
 C         -1.6868349213        1.2062562482       -2.6769634961
 C         -2.3444537759       -0.0046473129       -2.5494341275
 C         -2.1411092609       -0.7731084534       -1.4100303084
 C         -1.2901308773       -0.3170581757       -0.4127847020
 H         -1.1260493079       -0.9350082429        0.4579046623
 N         -2.7991491360       -2.0071155983       -1.2473635816
 S         -3.6677469033       -2.2532975458        0.1634161318
 O         -2.7739235957       -2.4613948319        1.2726833194
 O         -4.5691400266       -3.3414594138       -0.1461019699
 C         -4.5850639172       -0.7385486311        0.3738989426
 C         -5.7350003099       -0.5622583461       -0.3709028999
 C         -6.4170942823        0.6397037713       -0.2775773964
 C         -5.9340225975        1.6437468522        0.5478167404
 C         -4.7790638256        1.4511010779        1.2897102821
 C         -4.0941774531        0.2491821090        1.2032324218
 H         -3.1948981360        0.0573718111        1.7661521556
 H         -4.4065804971        2.2332044315        1.9320247925
 H         -6.4612195956        2.5820592305        0.6166311365
 H         -7.3185479772        0.7912292931       -0.8490565881
 H         -6.0809212487       -1.3721431421       -0.9927067248
 H         -3.3544602369       -2.2797348365       -2.0462591838
 H         -3.0015388948       -0.3588343703       -3.3293280020
 H         -1.8340147125        1.8023257183       -3.5646940821
 H         -0.3276446802        2.6007776964       -1.7922484521
 H          0.0947877870        0.7197013820        1.4476082831
 C          0.0901543514        2.7982452305        0.9586477847
 C         -1.1035635693        3.1638167652        1.7867475593
 C          0.2672166584        3.1991677176        2.3912075390
 H          0.7151761083        4.1579109419        2.6052908684
 H          0.5350145598        2.4263154172        3.0973774442
 H         -1.6025419462        4.0993906373        1.5875844995
 H         -1.7630098940        2.3625476680        2.0839127983
 H          0.4213866507        3.5018939241        0.2067717902
