  62
        -98.93531709
 C          2.2242273182        1.0482979403       -0.0340980470
 C          2.9815807533        0.4696395206        1.0147372922
 C          3.8808510206       -0.6480995509        0.6721461296
 C          3.9173509894       -1.0760553285       -0.6030412814
 C          4.7802582271       -2.1554347158       -1.1998125228
 C          6.2345864532       -1.7009007206       -1.4083104398
 C          6.8348994096       -0.9090246854       -0.2493336507
 H          7.8162346710       -0.5477592763       -0.5679375616
 H          6.2146179926       -0.0321001472       -0.0549944469
 C          7.0250267738       -1.6933919217        1.0466630370
 H          7.6864517880       -2.5418854869        0.8576261669
 H          7.5284381341       -1.0312619621        1.7556986486
 C          5.7472982577       -2.2137534201        1.7079833827
 H          5.3685334329       -3.0916922717        1.1914514176
 H          6.0132046138       -2.5394163297        2.7179457003
 C          4.6399950813       -1.1760714856        1.8654131375
 H          5.0434676008       -0.2956886132        2.3784223085
 H          3.8780005684       -1.5798809990        2.5433954246
 H          6.8463858145       -2.5825651413       -1.6060203122
 H          6.2636916596       -1.0638213292       -2.2956660211
 H          4.7360559251       -3.0496235452       -0.5850197336
 H          4.3491999991       -2.4002925226       -2.1731890494
 O          3.1525605155       -0.5086293254       -1.5772104878
 C          2.2939006888        0.5510130155       -1.3348050351
 O          1.6742860192        0.9309478063       -2.3473047583
 O          2.9245028330        0.8846570385        2.2038893787
 C          1.3369682464        2.2251441913        0.3349062283
 C         -0.0727594365        1.7728789017        0.6165184500
 C         -0.6896101463        2.0591920677        1.8283444418
 C         -1.9794193881        1.6248597063        2.0813246798
 C         -2.6804370952        0.9032021032        1.1319038004
 C         -2.0696837102        0.6044946419       -0.0792921883
 C         -0.7757124578        1.0375825790       -0.3286598859
 H         -0.3027666749        0.8003677804       -1.2707299068
 N         -2.7751246903       -0.1193267966       -1.0580680363
 S         -3.4795523665       -1.5721046793       -0.5946221923
 O         -2.7615972370       -2.1829730557        0.5010978911
 O         -3.5845166683       -2.3511758816       -1.8090202188
 C         -5.1132751933       -1.0970593612       -0.0682896664
 C         -5.5650072030       -1.4540590371        1.1870835689
 C         -6.8429544425       -1.0779363723        1.5711608790
 C         -7.6418034543       -0.3560466131        0.6977145166
 C         -7.1739784715       -0.0077089308       -0.5607750276
 C         -5.8982786587       -0.3818158705       -0.9515660828
 H         -5.4976412294       -0.1342582735       -1.9203977756
 H         -7.7979347079        0.5539118248       -1.2372373424
 H         -8.6350002172       -0.0631876477        0.9995257537
 H         -7.2082803958       -1.3482000203        2.5488783196
 H         -4.9053819256       -2.0097580905        1.8344992558
 H         -2.2518769103       -0.2391032111       -1.9142540902
 H         -3.6851846516        0.5631833079        1.3225932169
 H         -2.4452124080        1.8518812581        3.0280058538
 H         -0.1444778616        2.6110312767        2.5800023730
 H          1.7573942887        2.5974099550        1.2824366884
 C          1.4137502878        3.3644564155       -0.6735024397
 C          0.2700462212        3.7984489978       -1.5359804653
 C          0.7086893909        4.6585578447       -0.3915986611
 H          1.2206655011        5.5852199047       -0.6016129459
 H          0.0693589057        4.6915424951        0.4777744852
 H          0.4986741892        4.1121942756       -2.5431951237
 H         -0.6682408743        3.2742441300       -1.4484221820
 H          2.3999494555        3.4369375627       -1.1215177398
