  62
        -98.93792663
 C         -1.4242307884       -1.0094003038       -0.4875469850
 C         -2.4939472791       -1.2167506631        0.4175379901
 C         -3.4285326196       -0.0982310738        0.6220643198
 C         -3.2084654492        1.0569933209       -0.0287024538
 C         -4.0506442312        2.3027253697        0.0013463420
 C         -5.0670133072        2.3033374257       -1.1531890311
 C         -6.3908213985        1.6041864858       -0.8461512098
 H         -6.9605979554        2.2110270454       -0.1393985790
 H         -6.9604012087        1.5640156657       -1.7774441844
 C         -6.2665837207        0.1857289229       -0.2838507328
 H         -5.4971958569       -0.3610306224       -0.8319241869
 H         -7.2144017341       -0.3273788272       -0.4572738654
 C         -5.9543431431        0.1570750259        1.2197996079
 H         -6.1002354314        1.1546747289        1.6337377741
 H         -6.6691365431       -0.4954573804        1.7255443699
 C         -4.5535627309       -0.3534257129        1.5877528045
 H         -4.2704838709        0.0514268370        2.5656101466
 H         -4.5795481669       -1.4422444408        1.6988579721
 H         -4.5917915263        1.8310592597       -2.0168194526
 H         -5.2858133386        3.3376991840       -1.4261646911
 H         -4.5451603336        2.4097228933        0.9623926898
 H         -3.3647231387        3.1419977331       -0.1343515068
 O         -2.1648882625        1.2227547426       -0.8830604751
 C         -1.2404015389        0.2168916086       -1.1281962187
 O         -0.3468846011        0.5494463351       -1.9276124990
 H          0.8188537805       -0.0144599714        0.3629118199
 C          1.1738041928       -0.9367930531        0.7917396530
 C          0.6175038873       -2.1417326217        0.3880128314
 C          1.0676849132       -3.3169869343        0.9790312473
 C          2.0592331599       -3.2815277177        1.9433864887
 C          2.6113085816       -2.0783279241        2.3429327652
 C          2.1540824903       -0.8938162507        1.7726681687
 N          2.6549556560        0.3352943608        2.2077821776
 S          2.5909460567        1.7568000071        1.3405772503
 O          3.3665067881        2.6747691354        2.1488731255
 O          1.2241752986        2.1374348647        1.0882773330
 C          3.4827984508        1.4340364956       -0.1691776302
 C          2.8276763201        1.2833236602       -1.3732877840
 C          3.5810117537        1.0309697746       -2.5112126497
 C          4.9596030177        0.9263261560       -2.4272122559
 C          5.6020903797        1.0788714029       -1.2070841631
 C          4.8588538714        1.3367749459       -0.0683462871
 H          5.3196258930        1.4848713642        0.8946871099
 H          6.6752611821        0.9999113103       -1.1422075197
 H          5.5355617017        0.7272623425       -3.3171623382
 H          3.0743787572        0.9155363080       -3.4558756143
 H          1.7517742952        1.3522305973       -1.4229302963
 H          3.4322384987        0.2977296748        2.8482184459
 H          3.3749916175       -2.0489826809        3.1046138180
 H          2.4018068906       -4.2000923375        2.3948126158
 H          0.6203086402       -4.2582538087        0.6958321441
 C         -0.4618447841       -2.1692428367       -0.6670245081
 H         -1.0679847095       -3.0717096774       -0.4842661294
 C          0.1038187637       -2.2775752868       -2.0758921262
 C          1.5157595534       -1.9215414167       -2.4195267521
 C          1.0872221710       -3.3562124008       -2.4230973808
 H          0.9798054241       -3.8618800209       -3.3706519766
 H          1.4459261480       -3.9851100848       -1.6233112265
 H          2.1597990066       -1.5785738062       -1.6243345552
 H          1.6900494444       -1.4256528567       -3.3612850355
 H         -0.6446875362       -2.0442186923       -2.8261651944
 O         -2.6680375457       -2.3092329622        1.0250011586
