  62
        -98.93218962
 C         -1.8338976794       -0.7788667311        0.3724060848
 C         -2.2010779985        0.4881077618       -0.1483267541
 C         -3.5886703733        0.6446115907       -0.6126361975
 C         -4.4275663641       -0.4017919988       -0.5311050750
 C         -5.8666263267       -0.4934712414       -0.9742556023
 C         -6.7773442907        0.7055158136       -0.6793347831
 C         -6.4653799531        1.4499604141        0.6270877810
 H         -7.3841771801        1.5474498619        1.2084222982
 H         -5.7601912304        0.8723839669        1.2272760952
 C         -5.9049063744        2.8549557529        0.3938966019
 H         -6.4778054897        3.3323731223       -0.4040856475
 H         -6.0521520404        3.4467542862        1.3005928407
 C         -4.4175584274        2.9178035157        0.0486866515
 H         -4.1745531749        3.9527360226       -0.2035947902
 H         -3.8217709755        2.6538346469        0.9265339543
 C         -3.9669159621        2.0110124187       -1.1080984862
 H         -3.0550319434        2.4384163582       -1.5336670121
 H         -4.7233223370        1.9609753700       -1.8875802528
 H         -6.7330523226        1.4097775692       -1.5088314430
 H         -7.7993020414        0.3238685430       -0.6462106420
 H         -5.8781517343       -0.6956944482       -2.0493611402
 H         -6.2602461714       -1.3832602871       -0.4766978550
 O         -4.0340663467       -1.6052330536       -0.0300583527
 C         -2.7413671006       -1.8363305088        0.4274469020
 O         -2.5622480821       -2.9960680881        0.8398885027
 O         -1.3946911978        1.4535253442       -0.2237952055
 C         -0.4007572433       -0.9193441388        0.8490706334
 C          0.5111475864       -1.4006845363       -0.2500096236
 C          0.1619901584       -2.4578886285       -1.0835570389
 C          1.0349217422       -2.8898021353       -2.0656714192
 C          2.2756491180       -2.2959902907       -2.2191870440
 C          2.6343068655       -1.2393868030       -1.3908643322
 C          1.7424546677       -0.7882509048       -0.4280972279
 H          2.0149821869        0.0490458512        0.1948743900
 N          3.8798602840       -0.6103900321       -1.5149670621
 S          4.6978289744       -0.1193431403       -0.1371412345
 O          6.0848789109       -0.0540586643       -0.5434733859
 O          4.4004466881       -0.9772388156        0.9852556057
 C          4.1029760426        1.5303153686        0.1648339891
 C          3.5857477936        1.8575818923        1.4024402854
 C          3.1335418301        3.1494801820        1.6196124721
 C          3.2081905526        4.0866534112        0.6009928421
 C          3.7354112159        3.7433536869       -0.6348424682
 C          4.1889609891        2.4535665484       -0.8582208907
 H          4.6066393860        2.1497865727       -1.8035553912
 H          3.7908371252        4.4759476498       -1.4238706734
 H          2.8515364512        5.0900631560        0.7721597542
 H          2.7215934621        3.4172808240        2.5794695638
 H          3.5391338692        1.0965993117        2.1661154093
 H          4.4994841394       -1.0184501242       -2.1994830388
 H          2.9607660193       -2.6465254321       -2.9761218328
 H          0.7521598919       -3.7093007389       -2.7093929760
 H         -0.7933714278       -2.9425548095       -0.9477354890
 H         -0.0879994513        0.1073789971        1.0997076727
 C         -0.2562579565       -1.7515816938        2.1155231934
 C          0.2928501396       -3.1428201751        2.1342403074
 C          1.0998641756       -2.0158278273        2.7018566488
 H          1.2166770073       -1.9549227614        3.7736850975
 H          1.9697817164       -1.6940345891        2.1466431302
 H         -0.1643231080       -3.8528620006        2.8063041029
 H          0.6113378637       -3.5773322255        1.1998086383
 H         -1.0556154114       -1.5473261896        2.8214348299
