  62
        -98.93749104
 C         -2.2449088296       -0.7717422997       -0.0969666807
 C         -3.5831107897       -1.2023424095       -0.2894470507
 C         -4.6243385095       -0.4080336593        0.3753577593
 C         -4.2609656794        0.6189561107        1.1641575492
 C         -5.2139365292        1.5514859208        1.8528496692
 C         -5.5223286790        2.7723767408        0.9747112491
 C         -5.9113616691        2.4181310408       -0.4607613009
 H         -6.1360020689        3.3540854609       -0.9769047509
 H         -5.0490797592        1.9746600007       -0.9645339809
 C         -7.1117918792        1.4682482410       -0.5775143108
 H         -7.7810077992        1.8450374611       -1.3537942509
 H         -7.6714004792        1.4628515912        0.3584470792
 C         -6.7509806595        0.0314685210       -0.9600215908
 H         -7.6734010796       -0.4910682789       -1.2265918307
 H         -6.1118218295        0.0382422308       -1.8468290008
 C         -6.0554898796       -0.7947785991        0.1294108093
 H         -6.6330681896       -0.7449723590        1.0544449693
 H         -6.0307452298       -1.8355316591       -0.2064129907
 H         -6.3287573989        3.3397990610        1.4426839991
 H         -4.6339824189        3.4077156507        0.9415146491
 H         -4.7526134892        1.8899687908        2.7820556591
 H         -6.1325237593        1.0170988710        2.0869451392
 O         -2.9656106593        0.9541691105        1.3887492692
 C         -1.9230221794        0.2834061202        0.7579879692
 O         -0.7961187794        0.7190336901        1.0588516992
 O         -3.8912286798       -2.2061923595       -0.9854148007
 C         -1.1538814697       -1.5341384600       -0.8270647807
 C          0.0186431002       -1.7940956401        0.0839178393
 C         -0.1628953899       -2.6217737400        1.1886822494
 C          0.8758785700       -2.8641357701        2.0659280894
 C          2.1168800501       -2.2891246604        1.8582322794
 C          2.3127987903       -1.4712993304        0.7512621893
 C          1.2683327003       -1.2346658503       -0.1308641607
 H          1.4364331404       -0.5743658204       -0.9640853507
 N          3.5835792804       -0.9235194607        0.5004922993
 S          3.7668701506        0.5460327293       -0.3047891708
 O          3.0802375508        1.6129815094        0.3868984292
 O          3.4385305806        0.3606039793       -1.6962092908
 C          5.5315187306        0.7526296790       -0.1349244308
 C          6.3677064805        0.0433243788       -0.9762762207
 C          7.7387930706        0.1852892786       -0.8340508408
 C          8.2489794507        1.0291934386        0.1414286292
 C          7.3978689808        1.7362115187        0.9772048292
 C          6.0254642608        1.5974920890        0.8407354192
 H          5.3246124409        2.1335038991        1.4607509691
 H          7.7964314909        2.3943928687        1.7323977191
 H          9.3164954107        1.1392397984        0.2490226092
 H          8.4038770905       -0.3603150915       -1.4837816907
 H          5.9256934804       -0.5925436312       -1.7253204907
 H          4.1844307304       -0.9569067307        1.3130872893
 H          2.9265082501       -2.4695755305        2.5490880294
 H          0.7179833099       -3.5002325001        2.9240912194
 H         -1.1376986900       -3.0590888499        1.3587658094
 H         -1.6151236099       -2.5052847899       -1.0749533206
 C         -0.7455573996       -0.8968873301       -2.1472465507
 C         -1.7192021895       -0.1048315700       -2.9657001408
 C         -0.5684094294        0.5831675799       -2.2977138908
 H          0.2505786307        0.9409996197       -2.9054249508
 H         -0.7619931693        1.2006064100       -1.4333928908
 H         -1.6994681195       -0.2187867700       -4.0390038107
 H         -2.7088125595        0.0459630402       -2.5595369308
 H         -0.0518678197       -1.5228929802       -2.7010722507
