  62
        -98.94415671
 C         -2.2541749138       -0.8958818127        0.4029003726
 C         -2.4181987544       -0.0072087394       -0.6875746891
 C         -3.2545565355        1.1712011833       -0.4252327414
 C         -3.7753825978        1.3644974396        0.8001304845
 C         -4.6268099655        2.5294484441        1.2272393799
 C         -6.1149393169        2.3743550797        0.8847405397
 C         -6.4607864966        2.5220014640       -0.5975004693
 H         -7.5469563475        2.6099128067       -0.6649130518
 H         -6.0349348672        3.4510214693       -0.9777805007
 C         -6.0053757810        1.3471496783       -1.4743429956
 H         -5.7840362793        0.4845945016       -0.8414881481
 H         -6.8193083335        1.0539179702       -2.1411299110
 C         -4.7874692111        1.6438342295       -2.3493295223
 H         -5.0394331807        2.4171671962       -3.0782573942
 H         -4.5299186091        0.7344568562       -2.8979422894
 C         -3.5449136111        2.0940753777       -1.5700785563
 H         -2.6860069722        2.0632922399       -2.2449868297
 H         -3.6741213324        3.1156832921       -1.2132176409
 H         -6.4561184837        1.4005771617        1.2436356191
 H         -6.6579328497        3.1420279751        1.4408777343
 H         -4.5294572885        2.6040019043        2.3126305716
 H         -4.2432059306        3.4472185538        0.7804616832
 O         -3.5597920321        0.5049276590        1.8328830469
 C         -2.8095493890       -0.6474923944        1.6568679362
 O         -2.7005239279       -1.3516831672        2.6827433994
 H          0.0805193985       -0.1717113052        1.1859532004
 C          0.6187160309       -0.7380707372        0.4345064493
 C         -0.0146144149       -1.8074026394       -0.1865480978
 C          0.6959401498       -2.5352650736       -1.1321694596
 C          1.9945219487       -2.1832157996       -1.4575159877
 C          2.6115250130       -1.1037544625       -0.8532034921
 C          1.9152848565       -0.3762240378        0.1032751151
 N          2.5270217058        0.7329904414        0.7146320070
 S          4.0449575128        0.5207635143        1.4006027977
 O          4.2280242548       -0.8327727104        1.8720061018
 O          4.1604231294        1.5673609120        2.3929290175
 C          5.1707705165        0.8602942036        0.0639899344
 C          6.1450696655       -0.0612143502       -0.2663404026
 C          7.0162963728        0.2287421496       -1.3049735891
 C          6.8985271268        1.4282837233       -1.9901306578
 C          5.9161159735        2.3442449768       -1.6438216791
 C          5.0430388294        2.0615157409       -0.6055838068
 H          4.2673824399        2.7458069011       -0.3043341427
 H          5.8269934476        3.2757273534       -2.1793248001
 H          7.5761397673        1.6510177264       -2.7991419112
 H          7.7808928310       -0.4815562404       -1.5755365610
 H          6.1932338428       -0.9836789280        0.2899465554
 H          1.9194668230        1.2304104106        1.3494564752
 H          3.6188539503       -0.8210840240       -1.1114892215
 H          2.5321764125       -2.7552425027       -2.1980973227
 H          0.2315040974       -3.3778193183       -1.6175327832
 C         -1.4244533792       -2.1540135891        0.2302721259
 H         -1.3751941229       -2.6260649686        1.2233395712
 C         -2.1169778601       -3.1033275631       -0.7265937684
 C         -1.9746217279       -4.5857563162       -0.5621647417
 C         -3.2717068736       -3.9155459896       -0.2251495368
 H         -4.1185596823       -4.0677715258       -0.8773395834
 H         -3.5376814089       -3.8059338000        0.8166226357
 H         -1.9342665296       -5.2017387274       -1.4478866796
 H         -1.3637962868       -4.9429851554        0.2533002166
 H         -2.1860056343       -2.7012360366       -1.7307970160
 O         -1.8918053344       -0.1828242906       -1.8159923381
