  62
        -98.93432794
 C         -1.6742525998       -1.8374214649       -0.0001358192
 C         -1.4371430552       -0.4665662537       -0.2626792546
 C         -2.5867377658        0.4465701388       -0.0788177363
 C         -3.7650805326       -0.0486574479        0.3361907792
 C         -5.0657772885        0.6761944196        0.5744184057
 C         -4.9821248310        2.0100090954        1.3329422431
 C         -5.2683586891        3.2292018005        0.4544099502
 H         -6.0854832407        2.9827852784       -0.2269062687
 H         -5.6130015768        4.0459947169        1.0926284165
 C         -4.0759862566        3.7429162357       -0.3505695663
 H         -4.4443585598        4.5175775913       -1.0272479697
 H         -3.3621539517        4.2157911093        0.3272108596
 C         -3.3368493161        2.6839790444       -1.1713535468
 H         -2.8107117400        3.1956314933       -1.9799482970
 H         -4.0456551981        2.0005746884       -1.6375307691
 C         -2.2965331208        1.8947506230       -0.3628011904
 H         -1.3438014601        1.8807505216       -0.9009144492
 H         -2.0981082642        2.4021244212        0.5853318341
 H         -5.7280630400        1.9866645448        2.1291612392
 H         -4.0071568308        2.1056688161        1.8082753739
 H         -5.5598895578        0.8278920906       -0.3885518495
 H         -5.6849673267       -0.0297019432        1.1327909476
 O         -3.9430241273       -1.3775754881        0.5899915575
 C         -2.9172629151       -2.2915531308        0.4473346824
 O         -3.2287402214       -3.4612009801        0.7490359473
 H          1.7275076596       -1.9416270383       -1.2620368214
 C          1.7571386341       -1.9114128811       -0.1841557321
 C          0.6728598070       -2.3703421513        0.5456792249
 C          0.7202115291       -2.2886311459        1.9336541141
 C          1.8262350382       -1.7595807763        2.5725442230
 C          2.9041394186       -1.2938599831        1.8403441054
 C          2.8608206439       -1.3619834580        0.4540213720
 N          3.9452292093       -0.8839617797       -0.3065397560
 S          4.5069707387        0.6695041738       -0.0402419813
 O          5.3959664849        0.9355218250       -1.1493679613
 O          5.0966696434        0.7386512056        1.2739503844
 C          3.0921644089        1.7499951843       -0.1289992589
 C          2.7420433107        2.2755311004       -1.3560847425
 C          1.6436716543        3.1143628189       -1.4373906024
 C          0.9125820232        3.4048380037       -0.2965655169
 C          1.2697962985        2.8582995867        0.9254977015
 C          2.3701044542        2.0220423258        1.0145421835
 H          2.6821912953        1.5863854611        1.9495864440
 H          0.6936910557        3.0784043979        1.8102925648
 H          0.0583957957        4.0606984886       -0.3610287726
 H          1.3584652314        3.5353710911       -2.3884312301
 H          3.3432780817        2.0327316461       -2.2177512335
 H          3.8221415102       -1.0264957602       -1.2990876703
 H          3.7694439129       -0.8668264663        2.3211524928
 H          1.8494649003       -1.7047357168        3.6506990265
 H         -0.1296254710       -2.6348463714        2.5065766412
 C         -0.5794215828       -2.8862226998       -0.1160564640
 H         -0.9462081786       -3.7456736244        0.4677505864
 C         -0.3424028088       -3.3925857954       -1.5311270760
 C         -1.4944322245       -3.5944087099       -2.4684623951
 C         -0.4859054155       -2.5211311267       -2.7411685816
 H          0.2044975622       -2.6666443492       -3.5596432999
 H         -0.7740542415       -1.4929199406       -2.5906428254
 H         -1.4990380177       -4.4719824020       -3.0972817912
 H         -2.4745890978       -3.3016443137       -2.1208962124
 H          0.4408408822       -4.1444434871       -1.5622160926
 O         -0.3317390873       -0.0027107418       -0.6426717988
