  62
        -98.94034082
 C         -2.1494461904       -1.0045227101        0.2107076487
 C         -1.0449582612       -1.3019572499        1.0409159999
 C         -0.1997952710       -2.4388486202        0.6310279211
 C         -0.4543507700       -3.0623997606       -0.5305518189
 C          0.3541042405       -4.1571917810       -1.1688398676
 C          1.3856580915       -3.5619664316       -2.1430896369
 C          2.7292007010       -3.2012065615       -1.5119734757
 H          3.2553165906       -4.1180742115       -1.2357233048
 H          3.3215276518       -2.6979920419       -2.2799267954
 C          2.6448441599       -2.2865631010       -0.2867592062
 H          3.6127622099       -1.7927434811       -0.1708029454
 H          1.9095188302       -1.5020293110       -0.4743772972
 C          2.3164395985       -3.0400203304        1.0102867938
 H          3.0224127278       -2.7355582002        1.7853446144
 H          2.4764223385       -4.1059801405        0.8449902244
 C          0.9051973180       -2.8172091400        1.5800458524
 H          0.9342096274       -2.0031842497        2.3097669221
 H          0.5965556174       -3.7167580397        2.1230976024
 H          0.9476536421       -2.6667294517       -2.5936744777
 H          1.5679574222       -4.2794986519       -2.9461706564
 H          0.8377949197       -4.7691378108       -0.4126092069
 H         -0.3448811891       -4.7773644211       -1.7338606881
 O         -1.4973397691       -2.7154272708       -1.3326449800
 C         -2.3611431293       -1.6969024205       -0.9847943513
 O         -3.2821531185       -1.5034843407       -1.8060594722
 O         -0.7410956321       -0.6531902996        2.0798513099
 C         -3.1193795204        0.1392821902        0.4675874273
 C         -2.5978492596        1.4109447598       -0.1624470727
 C         -3.4312731588        2.2603005997       -0.8798858039
 C         -2.9190115581        3.3869772393       -1.4992048738
 C         -1.5632488381        3.6598631591       -1.4567984026
 C         -0.7218293789        2.8153941493       -0.7418891815
 C         -1.2531724897        1.7316751497       -0.0624531216
 H         -0.5967998703        1.1032163298        0.5121800093
 N          0.6694651011        3.0155846391       -0.7082111402
 S          1.6907238413        1.7272166488       -1.1046037787
 O          2.5295602324        2.2171687882       -2.1822627981
 O          0.9346181214        0.5317793388       -1.3820589690
 C          2.7118178999        1.5286112392        0.3436335824
 C          2.2453837587        0.8268383697        1.4365905622
 C          3.0674480976        0.6889475401        2.5444084230
 C          4.3335545077        1.2525215199        2.5459029340
 C          4.7875893589        1.9576534794        1.4417531042
 C          3.9715315500        2.0977217590        0.3313862133
 H          4.2873917909        2.6266357286       -0.5527206066
 H          5.7726293290        2.3959179892        1.4417881250
 H          4.9680365369        1.1396903701        3.4109034047
 H          2.7065782067        0.1405199105        3.4001221929
 H          1.2598055287        0.3899431199        1.4237126414
 H          0.9689675517        3.8397529089       -1.2108822403
 H         -1.1566598474        4.5125545589       -1.9800604926
 H         -3.5767617574        4.0423844492       -2.0499384847
 H         -4.4811683788        2.0238091498       -0.9694628548
 H         -4.0471098000       -0.1307443299       -0.0569498035
 C         -3.4449784918        0.3591133908        1.9317437169
 C         -4.7661776521        0.9568142311        2.3069132254
 C         -4.4910159326       -0.4896514888        2.5866187862
 H         -4.3337784836       -0.8018309184        3.6077916765
 H         -4.9858006021       -1.2307722890        1.9753338860
 H         -4.8007889028        1.6436175315        3.1383882250
 H         -5.4561544413        1.1941353209        1.5114907946
 H         -2.5819319924        0.6292759909        2.5251496676
