  62
        -98.94117502
 C          0.8001057472        1.9990976326        0.3648934716
 C         -0.2505802122        1.2682986280        0.9662115151
 C         -1.6300677195        1.6649695133        0.6130544818
 C         -1.8197363354        2.6334026984       -0.2998832294
 C         -3.1172264903        3.1412309952       -0.8704970448
 C         -3.7284042004        2.1728455363       -1.8953560714
 C         -3.7265337098        0.7039806984       -1.4780967315
 H         -2.6982401086        0.3761102200       -1.3068116115
 H         -4.1031813148        0.1212856118       -2.3241961941
 C         -4.5904293651        0.3752201422       -0.2623430568
 H         -4.5794752283       -0.7113679233       -0.1435847989
 H         -5.6210869954        0.6747775346       -0.4672214659
 C         -4.1538729235        1.0041516757        1.0627732266
 H         -4.6865977281        0.4805925311        1.8617958266
 H         -4.4581230719        2.0458469763        1.1207532048
 C         -2.6663638625        0.8707832923        1.3704386717
 H         -2.3705102997       -0.1785174238        1.2649954303
 H         -2.5060666274        1.1122455088        2.4283518203
 H         -3.1531272085        2.2526591725       -2.8213186583
 H         -4.7513214480        2.4926550556       -2.1040445066
 H         -2.8902949859        4.0828871385       -1.3757142307
 H         -3.8216824683        3.3549782233       -0.0721534723
 O         -0.7763514784        3.2873013967       -0.8873493113
 C          0.5343387021        2.9983321180       -0.5744665875
 O          1.3726772448        3.6962273958       -1.1836943442
 O         -0.0826553241        0.3109714981        1.7695055467
 C          2.2767835879        1.7192349874        0.6033211102
 C          2.7460799001        0.6263105936       -0.3273669157
 C          3.8785233315        0.7775271153       -1.1183023273
 C          4.2584077939       -0.2219140750       -1.9972372409
 C          3.5009354205       -1.3724910790       -2.1277329976
 C          2.3672983562       -1.5306313951       -1.3393485962
 C          2.0198993797       -0.5509117299       -0.4235008307
 H          1.1470594696       -0.6895323120        0.1914554315
 N          1.5496464040       -2.6669212135       -1.4420402133
 S         -0.1147607796       -2.4793222895       -1.3388554469
 O         -0.6545294054       -3.5733252336       -2.1235436303
 O         -0.5330203771       -1.1582977683       -1.7492683465
 C         -0.5353310686       -2.7750771167        0.3655781156
 C          0.4178778592       -3.1248227960        1.2981480245
 C          0.0166435309       -3.3642293580        2.6033095970
 C         -1.3200473257       -3.2575604376        2.9506439754
 C         -2.2673471787       -2.9138570815        1.9993780664
 C         -1.8722184877       -2.6698990648        0.6942168634
 H         -2.5720132863       -2.3941766857       -0.0800276875
 H         -3.3076612992       -2.8262167113        2.2703405471
 H         -1.6260504788       -3.4384507844        3.9690349858
 H          0.7525738865       -3.6271303770        3.3463077448
 H          1.4526088402       -3.1932535748        1.0050978781
 H          1.8015711060       -3.3158591776       -2.1732563660
 H          3.7774526198       -2.1368929821       -2.8380082820
 H          5.1404709345       -0.0938860016       -2.6062880900
 H          4.4491859441        1.6925227824       -1.0583753090
 H          2.8057179190        2.6424842160        0.3283653408
 C          2.6158435306        1.3794758519        2.0414398600
 C          4.0135760827        1.6019749700        2.5320330949
 C          2.9011360636        2.4849883002        3.0108371976
 H          2.5543195676        2.3787470668        4.0274931982
 H          2.8580886595        3.4988002400        2.6393420927
 H          4.4357678979        0.8875895790        3.2216794525
 H          4.7283811466        2.0205360582        1.8398456913
 H          2.0786432792        0.5172819368        2.4128398502
