  62
        -98.93627094
 C         -2.3517327538       -0.9816407043        0.4543175794
 C         -2.5506231939        0.0988743310       -0.4370829110
 C         -3.5418879050        1.1113887185       -0.0277590579
 C         -4.1816543507        0.9835265514        1.1464053896
 C         -5.1876017363        1.9130100271        1.7777873847
 C         -6.2765241690        2.5027575199        0.8706530518
 C         -6.7317592567        1.5896115918       -0.2769920808
 H         -6.3450479042        0.5798905019       -0.1287390502
 H         -7.8214178746        1.5252748417       -0.2679769087
 C         -6.3039508911        2.1028145094       -1.6541214324
 H         -6.4693945274        3.1817655459       -1.6925733556
 H         -6.9443590486        1.6472120592       -2.4132609334
 C         -4.8570390245        1.8048400726       -2.0453633057
 H         -4.6499593652        2.3207909177       -2.9861931566
 H         -4.7374097182        0.7346170310       -2.2348398314
 C         -3.7944630286        2.2165256395       -1.0132160826
 H         -2.8516008949        2.3707949691       -1.5448413930
 H         -4.0669753136        3.1438973200       -0.5155352939
 H         -7.1290352914        2.7335869950        1.5116287224
 H         -5.9323778940        3.4488563711        0.4550721313
 H         -5.6528897783        1.3266323842        2.5737207548
 H         -4.6408139993        2.7297800981        2.2578466058
 O         -3.9518224071       -0.0674122977        1.9824670824
 C         -3.0527936200       -1.0655271832        1.6615405804
 O         -2.9678401074       -1.9683909771        2.5176761940
 O         -1.9382383807        0.2448761078       -1.5294705356
 C         -1.3841618605       -2.1249571520        0.1867050988
 C          0.0394489536       -1.7181488174        0.4862988579
 C          0.7355268901       -2.2988067446        1.5401468604
 C          2.0420359909       -1.9305007137        1.8087331814
 C          2.6791865595       -0.9758695397        1.0363235868
 C          1.9922699995       -0.3889319178       -0.0182829514
 C          0.6841689775       -0.7654915820       -0.2895237547
 H          0.1488914298       -0.2966472046       -1.1019459993
 N          2.6166221219        0.6020018941       -0.7939071417
 S          4.1630358154        0.3189236898       -1.3768739864
 O          4.2929430851        1.1679777377       -2.5407825741
 O          4.4048729408       -1.0907910904       -1.5803203084
 C          5.2243522803        0.9403800923       -0.0887484849
 C          5.0464197846        2.2455060966        0.3265234089
 C          5.8694360211        2.7497716205        1.3206413636
 C          6.8532068599        1.9460640727        1.8775422065
 C          7.0219141678        0.6390632468        1.4470411603
 C          6.2010805093        0.1283045976        0.4534132577
 H          6.2923840043       -0.8833079009        0.0909896330
 H          7.7877583208        0.0163679083        1.8808098952
 H          7.4921114058        2.3411507212        2.6514986294
 H          5.7411633792        3.7658073983        1.6577423169
 H          4.2730523285        2.8376046729       -0.1337775092
 H          2.0191193051        0.9839408001       -1.5129905739
 H          3.6963038866       -0.6847462792        1.2418723200
 H          2.5699366198       -2.3896898807        2.6306256583
 H          0.2397913218       -3.0349888303        2.1563786378
 H         -1.6605826124       -2.9138196106        0.8989546747
 C         -1.5073163205       -2.6874342527       -1.2166253902
 C         -1.0108794686       -4.0743486378       -1.4874698778
 C         -2.4830005705       -3.7924985864       -1.4808499393
 H         -3.0151507031       -3.7962882558       -2.4203661680
 H         -3.0675649982       -4.1533839999       -0.6468291000
 H         -0.5276976729       -4.2732389501       -2.4318999090
 H         -0.5972555462       -4.6279113852       -0.6580204515
 H         -1.3776122949       -1.9459620697       -1.9938059852
