  62
        -98.93494288
 C         -1.8745134805       -0.6281109694        0.5274565898
 C         -3.2117603703       -0.7236598893        1.0122923402
 C         -4.0931878002        0.4260958109        0.7868875407
 C         -3.5869320002        1.5296617309        0.2093422407
 C         -4.3747777001        2.7568753011       -0.1428883889
 C         -4.9376991806        2.6650588914       -1.5681618587
 C         -5.6553944009        1.3485258916       -1.8664124187
 H         -6.0366130312        1.4104167218       -2.8880835386
 H         -4.9289221110        0.5329547115       -1.8440003790
 C         -6.8103914906        1.0232672616       -0.9088408084
 H         -7.6662231009        0.6825967519       -1.4954760682
 H         -7.1194467103        1.9260031816       -0.3806607181
 C         -6.5002909505       -0.0772826586        0.1077212214
 H         -7.4390777304       -0.3768310985        0.5812667116
 H         -6.1023818508       -0.9530985586       -0.4112874989
 C         -5.5245237601        0.3056931311        1.2274992411
 H         -5.8584692798        1.2287941111        1.7057862814
 H         -5.5425017100       -0.4940354990        1.9736949910
 H         -4.1114030308        2.7719400114       -2.2749291389
 H         -5.6251130305        3.4988722616       -1.7220111084
 H         -5.1865857999        2.8775278111        0.5719807214
 H         -3.7133210899        3.6223523410       -0.0778168589
 O         -2.2869364603        1.6276046007       -0.1500391397
 C         -1.3918725904        0.5695281606       -0.0005393001
 O         -0.2404615605        0.8754861904       -0.3644924704
 H          0.5930374689       -1.0877041196       -1.3368229610
 C          1.1334611291       -1.3743780598       -0.4495412012
 C          0.4506571994       -1.7692368298        0.6904254089
 C          1.1967815197       -2.0859538501        1.8225549787
 C          2.5784512897       -2.0146591704        1.8122048282
 C          3.2514210094       -1.5992935403        0.6775526681
 C          2.5167532491       -1.2589352700       -0.4501594516
 N          3.1723335288       -0.7796909500       -1.5959196018
 S          4.4885628691        0.2288672198       -1.3981590820
 O          4.5043642088        1.0674825100       -2.5777159419
 O          5.6723658390       -0.5737510304       -1.1978999325
 C          4.2111538597        1.2241031596        0.0610815282
 C          5.2914534700        1.4656794093        0.8877650279
 C          5.1202502005        2.2619147292        2.0080703081
 C          3.8731769006        2.8005186693        2.2846645886
 C          2.7994673703        2.5470968396        1.4459999189
 C          2.9633806299        1.7557852598        0.3190975087
 H          2.1209506096        1.5439948100       -0.3205546511
 H          1.8232614205        2.9532854798        1.6590337292
 H          3.7349615610        3.4175969892        3.1585326287
 H          5.9558382407        2.4567450389        2.6609145979
 H          6.2399492698        1.0169805792        0.6400474976
 H          2.5430086687       -0.4120479697       -2.2944384115
 H          4.3270733394       -1.5294499805        0.6499993978
 H          3.1367577499       -2.2744214906        2.6982875780
 H          0.6828449299       -2.3919600802        2.7224134588
 C         -1.0458961206       -1.8939812196        0.7416669294
 H         -1.3073277204       -2.2104080397        1.7657813394
 C         -1.5890040611       -3.0233387694       -0.1399955206
 C         -1.2035096216       -3.3036625292       -1.5583029708
 C         -0.7779458314       -4.2396319395       -0.4672368311
 H         -1.2489573416       -5.2086240294       -0.4009272511
 H          0.2652732087       -4.2349572197       -0.1883723714
 H         -0.4459680716       -2.7058202893       -2.0358911309
 H         -1.9869607119       -3.6215346990       -2.2315220006
 H         -2.6322546311       -3.2003397092        0.0993866397
 O         -3.6469569903       -1.7397201093        1.6178108902
