  62
        -98.94152191
 C          0.7197656488        1.4929832726       -0.0080851684
 C          1.7484955915        1.3432535293        0.9492291756
 C          2.6408379314        0.1894389256        0.7667260154
 C          2.4178506780       -0.6528310798       -0.2585837008
 C          3.2820532892       -1.8281227723       -0.6191911625
 C          4.5597059076       -1.3444854388       -1.3347742997
 C          5.8528777393       -1.6105034560       -0.5642465368
 H          6.1038153725       -2.6701798136       -0.6451586282
 H          6.6482569849       -1.0447803602       -1.0539763441
 C          5.8281288905       -1.2483555683        0.9238217871
 H          6.8649622275       -1.2384444346        1.2667568060
 H          5.3228262238       -2.0352226717        1.4861841707
 C          5.1807637783        0.0971876453        1.2759096120
 H          5.7658630377        0.5561356262        2.0755340909
 H          5.2177294642        0.7773272667        0.4247026976
 C          3.7303082663       -0.0015263217        1.7854463130
 H          3.5847437572       -0.9568938251        2.2987129195
 H          3.5646966835        0.7907331504        2.5220635305
 H          4.4609174638       -0.2735222611       -1.5226878269
 H          4.6371142628       -1.8293790193       -2.3088995306
 H          3.5329113725       -2.3872908345        0.2797865157
 H          2.6988488600       -2.4714940131       -1.2774347190
 O          1.4080339417       -0.4843805300       -1.1502068434
 C          0.5251606356        0.5798194552       -1.0440436936
 O         -0.3652018374        0.6006294510       -1.9130702880
 H         -1.1141521397        0.3940511682        1.2873858146
 C         -1.9292978419        0.9672458796        0.8706429564
 C         -1.6712183598        2.1674682034        0.2223023171
 C         -2.7456258062        2.8902213931       -0.2837063962
 C         -4.0377547155        2.4130999340       -0.1516149644
 C         -4.2866652676        1.2032732410        0.4700949835
 C         -3.2189809755        0.4746226727        0.9819092864
 N         -3.4261238735       -0.7609581777        1.6172652248
 S         -2.3413340850       -2.0084600777        1.4093470601
 O         -3.0799539269       -3.1857135870        1.8220680637
 O         -1.1267937473       -1.7551534053        2.1462140136
 C         -1.9841120479       -2.1434033568       -0.3336271940
 C         -0.7563992283       -2.6574689688       -0.6954558724
 C         -0.4758625397       -2.8493293485       -2.0377470667
 C         -1.4214408061       -2.5180027313       -2.9934986184
 C         -2.6501519561       -2.0032040288       -2.6151102155
 C         -2.9414606238       -1.8208049097       -1.2734755818
 H         -3.8928522291       -1.4208619464       -0.9634725474
 H         -3.3816576796       -1.7373203791       -3.3610971771
 H         -1.1952193686       -2.6548001396       -4.0391884966
 H          0.4827384473       -3.2446572921       -2.3339117352
 H         -0.0398862199       -2.8809805010        0.0801690058
 H         -4.3788446221       -1.0950174157        1.6106011386
 H         -5.2934275797        0.8250542589        0.5627464234
 H         -4.8618763431        2.9859675442       -0.5483249404
 H         -2.5694267747        3.8285016993       -0.7836535108
 C         -0.2461487520        2.6537018971        0.1210442755
 H          0.0142151685        3.1488901617        1.0694099730
 C         -0.0374112479        3.6377884474       -1.0138786662
 C         -0.2068596108        5.1102099357       -0.7899976394
 C          1.1631004895        4.5340042433       -0.9787195725
 H          1.6873610905        4.7324153901       -1.9014396294
 H          1.8102505235        4.4572834477       -0.1169437887
 H         -0.6221810202        5.7087321800       -1.5868363709
 H         -0.4825557964        5.4384600702        0.2009120767
 H         -0.3275759039        3.2268149276       -1.9743990160
 O          1.9118962884        2.1391717651        1.9155888516
