  62
        -98.93966599
 C         -1.4429690220       -0.9204268962       -0.5287855281
 C         -2.6108084625       -1.0488208223        0.2644444743
 C         -3.3876031431        0.1730264368        0.5288609956
 C         -2.9592697468        1.3444688881        0.0233347451
 C         -3.5000238633        2.7519353513        0.1674584349
 C         -4.9050617652        2.9967364526        0.7114528215
 C         -6.0352468767        2.5132006887       -0.1967740180
 H         -6.0586402000        3.1456319923       -1.0877648917
 H         -6.9804450839        2.6494233391        0.3331483299
 C         -5.9312218017        1.0634579606       -0.6636019630
 H         -5.0374780924        0.9396808645       -1.2784496129
 H         -6.7936145506        0.8557254335       -1.3027652355
 C         -5.9155400892        0.0174303895        0.4493384684
 H         -6.0027156900       -0.9651925728       -0.0218670684
 H         -6.7835585470        0.1558352877        1.0967669949
 C         -4.6495818030       -0.0019002430        1.3239099616
 H         -4.5793320864       -0.9862448936        1.7960435391
 H         -4.7059696175        0.7368940833        2.1201963668
 H         -5.0107131359        4.0794251928        0.8226358008
 H         -5.0032903426        2.5683580873        1.7046352360
 H         -3.4160772351        3.2067484739       -0.8248453438
 H         -2.7816816506        3.2767843598        0.8078642595
 O         -1.8294004282        1.4229641218       -0.7337384071
 C         -1.0424705048        0.3193919479       -1.0222450037
 O         -0.0544564223        0.5949087632       -1.7302147522
 O         -2.9937715502       -2.1532188726        0.7382235421
 C         -0.6381486757       -2.1898899233       -0.7541974354
 C          0.3995666839       -2.3294819259        0.3354126156
 C          0.3827701557       -3.4211247215        1.1945990218
 C          1.3055444621       -3.5205637562        2.2207314296
 C          2.2439580541       -2.5252638828        2.4175494371
 C          2.2706193332       -1.4272708326        1.5620098576
 C          1.3677139198       -1.3497060455        0.5124847955
 H          1.3864577162       -0.4957531625       -0.1436108685
 N          3.2193574052       -0.4151660412        1.7501299831
 S          2.9269505564        1.2004959077        1.4068571454
 O          3.6972937592        1.9143854170        2.4068765087
 O          1.5153908991        1.4966405192        1.3649635779
 C          3.7209675384        1.4314635618       -0.1700713143
 C          2.9875528771        1.5538928112       -1.3315367731
 C          3.6639729696        1.7144221864       -2.5325232165
 C          5.0488104583        1.7506938318       -2.5522211214
 C          5.7712123936        1.6287885039       -1.3741556685
 C          5.1033617043        1.4673428394       -0.1724087406
 H          5.6234963206        1.3827729572        0.7672050415
 H          6.8487448546        1.6590190193       -1.3905481264
 H          5.5665780579        1.8760222548       -3.4901948195
 H          3.0956652924        1.8066544496       -3.4444779958
 H          1.9093542044        1.5146043300       -1.2985034331
 H          3.7840977825       -0.5168068053        2.5803909069
 H          2.9499561828       -2.5888370455        3.2317381514
 H          1.2830369864       -4.3719648636        2.8839736066
 H         -0.3737707208       -4.1814487599        1.0686741772
 H         -1.3567798497       -3.0124050384       -0.6332020950
 C         -0.0078836882       -2.3041689304       -2.1265958744
 C          0.3212020704       -3.6649504607       -2.6608123392
 C         -0.8078736469       -2.8788613687       -3.2552794291
 H         -0.6843372132       -2.4547025771       -4.2401957386
 H         -1.8185863201       -3.1949199270       -3.0409753164
 H          1.2243079614       -3.7850173727       -3.2388486232
 H          0.0750145207       -4.5174997823       -2.0461700028
 H          0.6685662827       -1.4935254078       -2.3614151225
