  62
        -98.93893109
 C          2.0767301261        0.9520480796       -0.4127472499
 C          3.1265357065        1.1736695708        0.5103265310
 C          4.3962279537        0.4724721517        0.2545248923
 C          4.4920489558       -0.3505584814       -0.8064500988
 C          5.6539754211       -1.1654787432       -1.3354408491
 C          6.9005619711       -1.3933223912       -0.4846448630
 C          6.6824804388       -2.2745211017        0.7450771857
 H          6.4951289496       -3.2977549360        0.4096154902
 H          7.6050578903       -2.2803146078        1.3296411437
 C          5.5224916885       -1.8685452828        1.6508233516
 H          4.5819827551       -1.9491066789        1.1015891993
 H          5.4749009573       -2.5862027977        2.4744427452
 C          5.6253783962       -0.4709844902        2.2581586877
 H          6.5764878336       -0.3678343268        2.7841111231
 H          4.8233385310       -0.3729396221        2.9946689886
 C          5.4854785968        0.6946655200        1.2641720583
 H          6.4300462543        0.9085693315        0.7700146978
 H          5.2015085926        1.5869604649        1.8296453927
 H          7.3412187186       -0.4424210823       -0.2000880936
 H          7.6270837226       -1.8985520287       -1.1269272615
 H          5.2321662338       -2.1350787440       -1.6192116770
 H          5.9565270650       -0.6777356243       -2.2687959516
 O          3.4472584173       -0.5409998484       -1.6641546507
 C          2.2235521355        0.0868073724       -1.4949744933
 O          1.3808783584       -0.2044115213       -2.3650641436
 O          3.0127726332        1.9365831395        1.5065179425
 C          0.7485438325        1.6514549420       -0.1747019029
 C         -0.2692447401        0.6099001823        0.2181017703
 C         -0.2585925887        0.1149096327        1.5197562295
 C         -1.1377321692       -0.8789489050        1.9059630268
 C         -2.0451971724       -1.4033781530        1.0018956194
 C         -2.0642799129       -0.9155285899       -0.2978247785
 C         -1.1903178509        0.0946779463       -0.6803406873
 H         -1.2069598541        0.4513125520       -1.6977912232
 N         -2.9787080497       -1.4456411739       -1.2215522840
 S         -4.5588444266       -1.6865042960       -0.7358545916
 O         -4.6566162713       -2.9091678773        0.0226426717
 O         -5.3416915608       -1.6328358586       -1.9504726783
 C         -4.9379901866       -0.2938260520        0.3131721350
 C         -4.9007935673        0.9681417698       -0.2464201142
 C         -5.1580780009        2.0659826027        0.5579805772
 C         -5.4441103789        1.8843585673        1.9026700155
 C         -5.4815111327        0.6109592153        2.4485535395
 C         -5.2247074449       -0.4910149000        1.6483408529
 H         -5.2435835556       -1.4979587151        2.0321949971
 H         -5.7062837767        0.4726528294        3.4938593426
 H         -5.6401243485        2.7413803512        2.5275295799
 H         -5.1313866446        3.0574836586        0.1352693216
 H         -4.6814215670        1.0734245669       -1.2967353939
 H         -2.9222981660       -1.0351025351       -2.1412094692
 H         -2.7247568428       -2.1932136569        1.2779735183
 H         -1.1150282076       -1.2542610066        2.9177414554
 H          0.4608375473        0.5133659198        2.2214394616
 H          0.9181842605        2.3052964532        0.6913239002
 C          0.3372191652        2.5039547815       -1.3559801933
 C         -0.7287219404        3.5420414510       -1.1761265506
 C          0.6980273614        3.9579441719       -1.3684304359
 H          0.9839522347        4.4083562231       -2.3072412987
 H          1.2377639096        4.3461181551       -0.5172291864
 H         -1.4257412777        3.7120891439       -1.9824246356
 H         -1.1571965187        3.6468235666       -0.1910818920
 H          0.3830362270        1.9779220657       -2.3019064231
