  62
        -98.93757992
 C          1.5178829987        1.6465376340        0.3264414860
 C          1.6745591160        0.5922843475       -0.6026488486
 C          2.6444531406       -0.4629339332       -0.2416597711
 C          3.2660519293       -0.4005404179        0.9493781301
 C          4.2728740213       -1.3562595640        1.5378496374
 C          5.4119652630       -1.8025524305        0.6075620721
 C          5.3179536595       -3.2728981178        0.1976705700
 H          6.3149229414       -3.6230134218       -0.0790366903
 H          4.9978350297       -3.8560201442        1.0638084940
 C          4.3858105461       -3.5585752410       -0.9782280842
 H          4.8389250207       -3.1799391901       -1.8969428524
 H          4.3063160382       -4.6436224266       -1.0787444940
 C          2.9760082048       -2.9742482218       -0.8601171005
 H          2.3260231708       -3.5635742579       -1.5111869992
 H          2.6006001278       -3.0879248578        0.1566144964
 C          2.8761864969       -1.5060049079       -1.3016747651
 H          2.0361064376       -1.3818737129       -1.9924294136
 H          3.7711329777       -1.2299224045       -1.8672571339
 H          5.4412880568       -1.1647555618       -0.2747315758
 H          6.3535925726       -1.6596080392        1.1400699815
 H          3.7426210126       -2.2315031588        1.9209870738
 H          4.6844144610       -0.8370848526        2.4063647841
 O          3.0198638402        0.5967742769        1.8484218328
 C          2.1671734464        1.6461059304        1.5589594818
 O          2.0632039168        2.4939363284        2.4697817864
 O          1.0424486988        0.5302482042       -1.6876221600
 C          0.5967711928        2.8116568301        0.0105924836
 C         -0.8232740758        2.3254744181       -0.1505397911
 C         -1.6380130869        2.6702453559       -1.2202156494
 C         -2.9341717416        2.1887147295       -1.2983376065
 C         -3.4446695947        1.3598231468       -0.3172448872
 C         -2.6367662843        1.0090124917        0.7575709875
 C         -1.3406053734        1.4924524451        0.8345132008
 H         -0.7131338478        1.2198246044        1.6746974427
 N         -3.1429685371        0.1533094107        1.7535234412
 S         -3.9009702427       -1.2464250157        1.2291495826
 O         -5.2689127267       -0.9489123102        0.8845788676
 O         -3.7156375437       -2.2026953505        2.2983353457
 C         -3.0013874480       -1.7450615056       -0.2271949370
 C         -3.6241634695       -1.7556169815       -1.4582008019
 C         -2.8859373363       -2.1036652913       -2.5779211955
 C         -1.5458387253       -2.4319516417       -2.4474031506
 C         -0.9365272946       -2.4228731446       -1.2024618382
 C         -1.6683243069       -2.0727415706       -0.0808783481
 H         -1.2213366617       -2.0548206374        0.9009976310
 H          0.1064414430       -2.6731570021       -1.1005542874
 H         -0.9687832394       -2.6938395901       -3.3200809640
 H         -3.3559192901       -2.1124871145       -3.5481304678
 H         -4.6677914735       -1.4924412753       -1.5148597265
 H         -2.4791557134       -0.0518278939        2.4859206676
 H         -4.4526538141        0.9805193158       -0.3604438120
 H         -3.5558164256        2.4635829101       -2.1364536791
 H         -1.2583395582        3.3131694267       -1.9966407040
 H          0.6272746052        3.4668868448        0.8938400576
 C          1.1167720128        3.5816681999       -1.1849915281
 C          0.8235158279        5.0442953309       -1.3244062995
 C          2.2077163823        4.5871446474       -0.9772674356
 H          2.9829033322        4.6699516467       -1.7241978334
 H          2.5595635787        4.7366400339        0.0335511202
 H          0.6509900436        5.4448514278       -2.3118974679
 H          0.2364095914        5.5132410451       -0.5492628987
 H          1.1585984722        2.9778756194       -2.0837376378
