  62
        -98.94353630
 C          1.8752733201        0.8376807911        0.6950481394
 C          2.2240703299        0.4186479199       -0.6118730602
 C          3.6596690699        0.4371235294       -0.9201830804
 C          4.5377180100        0.8740743602        0.0009375291
 C          6.0289011700        0.9734985199       -0.1744923111
 C          6.7771781599       -0.3380917500        0.1004614100
 C          6.6063875797       -1.4202092509       -0.9665245591
 H          6.8384527396       -1.0020942518       -1.9464809095
 H          7.3478571796       -2.1943292008       -0.7588293484
 C          5.2139692196       -2.0660616308       -0.9967418083
 H          5.3173331795       -3.1516282809       -1.0610513074
 H          4.6917240797       -1.8504992499       -0.0616268085
 C          4.3346582495       -1.6246677317       -2.1669039886
 H          3.3613156195       -2.1118236016       -2.0661719481
 H          4.7825459494       -1.9560085626       -3.1064066184
 C          4.0994624897       -0.1103678118       -2.2442359200
 H          5.0024112097        0.3944256178       -2.5867388505
 H          3.2978139896        0.0755170876       -2.9628919800
 H          7.8400687099       -0.0973175100        0.1764963096
 H          6.4551795500       -0.7273128991        1.0692320603
 H          6.2576183699        1.3200304389       -1.1825709915
 H          6.3764831901        1.7238298905        0.5389367882
 O          4.1553601202        1.3063669013        1.2328444588
 C          2.8244893502        1.2730350218        1.6184523689
 O          2.6179550704        1.6519630229        2.7899792986
 H         -2.0940035300        0.1058221511        0.2716166605
 C         -1.4752584501       -0.7425703288        0.5121637612
 C         -0.1740583800       -0.5559269485        0.9531380509
 C          0.5866242199       -1.6777237983        1.2721372918
 C          0.0684757897       -2.9493281884        1.1257573930
 C         -1.2300039803       -3.1307526086        0.6832800233
 C         -2.0061350302       -2.0190866088        0.3828304724
 N         -3.3247403803       -2.1670635191       -0.0717159373
 S         -4.5182200601       -1.1321834285        0.4782245619
 O         -4.2688204000       -0.7015125373        1.8340502715
 O         -5.7543191902       -1.8542898086        0.2607975227
 C         -4.4716002301        0.2609095605       -0.6292848094
 C         -4.1984389603        0.0528620093       -1.9666953192
 C         -4.2116947003        1.1383116085       -2.8280672202
 C         -4.5052685201        2.4041571290       -2.3439201413
 C         -4.7837182999        2.5953160702       -0.9994809814
 C         -4.7670765900        1.5144772710       -0.1314356504
 H         -4.9644806698        1.6205864319        0.9234010095
 H         -5.0113617398        3.5803254006       -0.6235370023
 H         -4.5153362801        3.2467309584       -3.0173153320
 H         -3.9918177304        0.9940004076       -3.8736315101
 H         -3.9704307904       -0.9422895910       -2.3101582083
 H         -3.6533068104       -3.1203838391       -0.1221812164
 H         -1.6381774204       -4.1238850587        0.5717458343
 H          0.6775123797       -3.8082661682        1.3652003737
 H          1.5982865799       -1.5393736981        1.6295683216
 C          0.4211146201        0.8209741816        1.1256120796
 H          0.4152086103        1.0590784725        2.2001879194
 C         -0.3434887699        1.8995553910        0.3844583887
 C         -1.5019178197        2.5958141817        1.0309657582
 C         -0.2049198597        3.3208290014        0.8376129274
 H         -0.1543744397        4.0984918307        0.0906657267
 H          0.4158477704        3.5045540521        1.7027702372
 H         -1.7742029796        2.2934270926        2.0313505885
 H         -2.3410817898        2.8761103912        0.4122272781
 H         -0.3879873800        1.7147319001       -0.6828764811
 O          1.3857352098        0.0481600592       -1.4731214998
