  62
        -98.94687040
 C          1.1505819649        1.1613441431       -0.1756764718
 C          2.0072443858        0.8309097251        0.9085414368
 C          2.8324696750       -0.3719401392        0.7495747149
 C          2.7212433418       -1.0966411430       -0.3781839370
 C          3.5473848644       -2.3058822444       -0.7066081052
 C          4.8184231684       -1.9154345512       -1.4740237641
 C          5.6052606400       -0.7760060603       -0.8262557729
 H          6.4968555825       -0.6094645834       -1.4346867285
 H          5.0107662653        0.1393331066       -0.8716973733
 C          6.0207292803       -1.0376720311        0.6283170179
 H          5.9611010872       -2.1048718722        0.8450751401
 H          7.0642226835       -0.7407018152        0.7529900712
 C          5.2101954860       -0.2622416486        1.6687706278
 H          5.1939633776        0.7979258971        1.4037574128
 H          5.7208605332       -0.3502327867        2.6314540711
 C          3.7637360122       -0.7305132249        1.8730669930
 H          3.7504312448       -1.8064618408        2.0584773155
 H          3.3736019240       -0.2232282927        2.7600317235
 H          5.4557478866       -2.7975621192       -1.5586579504
 H          4.5335151835       -1.6045288174       -2.4817805596
 H          3.8148601000       -2.8214327648        0.2138532199
 H          2.9514698187       -2.9743134923       -1.3297343084
 O          1.8650932908       -0.7744701057       -1.3768354160
 C          1.0626021319        0.3532047277       -1.3093523971
 O          0.3383401548        0.4992568287       -2.3155329336
 H         -1.5457206546        1.0512980281       -1.3964046982
 C         -1.9145803073        1.3791591958       -0.4360597721
 C         -1.0827217554        2.1114032704        0.3990870817
 C         -1.5693238474        2.5032931955        1.6404891327
 C         -2.8548680182        2.1707598038        2.0334510513
 C         -3.6767083574        1.4296526073        1.2024581332
 C         -3.1936328382        1.0277666126       -0.0353767047
 N         -3.9984260795        0.2096224584       -0.8663046868
 S         -4.1690390419       -1.3535855819       -0.2841918258
 O         -4.6887807107       -2.1347238426       -1.3830401144
 O         -4.9790010477       -1.3111696512        0.9065881971
 C         -2.5161740280       -1.8868625543        0.1288291513
 C         -1.7731851173       -2.5548569516       -0.8229804901
 C         -0.4777931161       -2.9372876812       -0.5157223438
 C          0.0556459689       -2.6297453346        0.7258762527
 C         -0.6963189517       -1.9406963881        1.6642735142
 C         -1.9971933334       -1.5684377791        1.3681241506
 H         -2.6158469945       -1.0453686607        2.0788000060
 H         -0.2703049379       -1.6889914750        2.6224001279
 H          1.0655727902       -2.9238990953        0.9641647532
 H          0.1132013875       -3.4645305815       -1.2473894801
 H         -2.2233286579       -2.7753538012       -1.7778326837
 H         -3.6403483877        0.1599448926       -1.8111921722
 H         -4.6688012584        1.1330145237        1.5018712335
 H         -3.2183244289        2.4845473757        3.0001430561
 H         -0.9255937079        3.0577581623        2.3075228977
 C          0.3296935706        2.4326973768       -0.0241321652
 H          0.8064318509        2.9847997053        0.7967281057
 C          0.3429461973        3.3085239185       -1.2618592186
 C          0.0126019100        4.7634697011       -1.1250084424
 C          1.4189900201        4.3384185693       -1.4210760438
 H          1.8178981604        4.5179280159       -2.4082011085
 H          2.1531434696        4.4213422827       -0.6328680183
 H         -0.5577303892        5.2377975233       -1.9087701178
 H         -0.2062226469        5.1358784849       -0.1357386820
 H          0.0095188108        2.7986689813       -2.1562261958
 O          2.0833198759        1.5212019514        1.9590732201
