  62
        -98.94043424
 C         -1.7648303207       -1.0060111437       -0.2510077619
 C         -3.1118551927       -1.3041706161        0.0552162754
 C         -4.1100164884       -0.2759596343       -0.2882713800
 C         -3.7025724477        0.8763947466       -0.8529640107
 C         -4.4840208271        2.0778016593       -1.3431713409
 C         -5.9519630589        2.2626363040       -0.9679766379
 C         -6.2018657485        2.5529276428        0.5117758418
 H         -5.8241773105        3.5533367867        0.7374953361
 H         -7.2807133279        2.5590397667        0.6815890115
 C         -5.5496218873        1.5830420987        1.4938209247
 H         -5.7973247906        1.9149772605        2.5057687190
 H         -4.4634809405        1.6359305996        1.3950595279
 C         -5.9894585282        0.1263515731        1.3628718085
 H         -7.0774991074        0.0631244041        1.4267262632
 H         -5.5728910550       -0.4216422428        2.2124679702
 C         -5.5312535272       -0.5905302004        0.0812175147
 H         -5.5676471615       -1.6680981102        0.2666539040
 H         -6.2001473315       -0.3809737044       -0.7500381271
 H         -6.3122819289        3.1235973004       -1.5376445240
 H         -6.5346989137        1.4058452341       -1.2931169591
 H         -3.9181107814        2.9554029534       -1.0148549201
 H         -4.4068113532        2.0537719943       -2.4358545071
 O         -2.3866681922        1.1183086766       -1.1283635851
 C         -1.3916514703        0.1994074945       -0.8401014323
 O         -0.2442031768        0.5717477140       -1.1476081054
 O         -3.4700357140       -2.3868685152        0.5923426295
 C         -0.6901313785       -2.0302130215        0.0622709842
 C          0.3639035797       -1.4249366385        0.9550024104
 C         -0.0335278818       -0.7997886152        2.1352802794
 C          0.8961468306       -0.2299368325        2.9822459586
 C          2.2441474627       -0.2641572950        2.6676596175
 C          2.6526225958       -0.8915014489        1.4980277145
 C          1.7156656664       -1.4772499906        0.6556375976
 H          2.0643950660       -1.9536821712       -0.2445637543
 N          4.0178456644       -0.9719914524        1.1663636011
 S          4.5663895921       -0.4290001851       -0.3189902847
 O          3.9157824438       -1.1517069383       -1.3800126359
 O          6.0052363662       -0.5622923169       -0.2442026322
 C          4.1379843421        1.3023389478       -0.3627550953
 C          2.8342845033        1.6772534188       -0.6184254670
 C          2.5145842188        3.0264977415       -0.5906747687
 C          3.4909277057        3.9697152577       -0.3114973331
 C          4.7957927860        3.5746089720       -0.0561913292
 C          5.1228769561        2.2290483053       -0.0767756159
 H          6.1237737768        1.8754693089        0.1117176291
 H          5.5552013076        4.3090013045        0.1592620936
 H          3.2328111853        5.0170044515       -0.2941124629
 H          1.4956197104        3.3190797787       -0.7893575539
 H          2.0793080016        0.9383340624       -0.8366329746
 H          4.6327747060       -0.6298885450        1.8917505988
 H          2.9728236454        0.1859807238        3.3247657183
 H          0.5707430402        0.2512041951        3.8922530857
 H         -1.0873863298       -0.7666601666        2.3768433819
 H         -1.1997982983       -2.8280020783        0.6230419470
 C         -0.1365618974       -2.6180753162       -1.2186285021
 C          0.4275278217       -4.0063025445       -1.2282044908
 C         -0.8852865786       -3.7258935745       -1.8940841979
 H         -0.9306847905       -3.7349691012       -2.9728426104
 H         -1.7879027523       -4.0771118033       -1.4155320728
 H          1.2888256959       -4.2055225898       -1.8482698674
 H          0.4176434754       -4.5557731735       -0.2989362927
 H          0.3337166280       -1.8753173145       -1.8546743821
