  62
        -98.93655458
 C         -1.8311654100       -0.8068507981        0.7345036402
 C         -2.8172456198       -1.1253098984       -0.2297567899
 C         -4.1505371398       -0.5285709681       -0.0232122904
 C         -4.3692246398        0.2637268324        1.0388945793
 C         -5.6460401698        0.9483722328        1.4590223687
 C         -6.4938929295        1.6060771325        0.3619973983
 C         -5.6945359592        2.2082123318       -0.8028678718
 H         -6.0229636290        3.2367839118       -0.9640039324
 H         -4.6329555892        2.2419598217       -0.5508852117
 C         -5.8835765391        1.4434209512       -2.1151792715
 H         -6.9415048491        1.1957348614       -2.2264000916
 H         -5.6124267088        2.0995964508       -2.9457425318
 C         -5.0531984093        0.1684004811       -2.2552694908
 H         -3.9966463192        0.4256861808       -2.3695934008
 H         -5.3620074692       -0.3343826193       -3.1748359106
 C         -5.1672697696       -0.8257689284       -1.0880589004
 H         -6.1767083297       -0.8475793981       -0.6852257706
 H         -4.9221028497       -1.8205776386       -1.4692787099
 H         -7.2054595895        0.8821152024       -0.0325043115
 H         -7.0795558795        2.3899609228        0.8454301878
 H         -6.2602903400        0.2210970831        1.9981813889
 H         -5.3352002398        1.7049478031        2.1837989584
 O         -3.3928655299        0.5349641327        1.9520240693
 C         -2.1164669000        0.0202222224        1.8234677898
 O         -1.3363955401        0.3595552327        2.7372555997
 H          1.3442888502        0.6883488215        1.0809185001
 C          1.2218906604        0.4825368711        0.0275065401
 C          0.3591355203       -0.5230698890       -0.3877959896
 C          0.1968175005       -0.7434766096       -1.7520262595
 C          0.8802920208        0.0304604399       -2.6715774097
 C          1.7514944809        1.0211460900       -2.2538328600
 C          1.9196759507        1.2512724705       -0.8939629801
 N          2.7958799507        2.2541865106       -0.4384364804
 S          3.9451308705        1.8506797609        0.7096046300
 O          3.3221187802        1.6345365916        1.9896725200
 O          4.9191997907        2.9177593008        0.6418445497
 C          4.6550655403        0.3344958306        0.0954547608
 C          5.6246242105        0.4143454700       -0.8853191591
 C          6.1291056304       -0.7566800104       -1.4266807785
 C          5.6494155802       -1.9815288901       -0.9878730880
 C          4.6764144200       -2.0450854195       -0.0024918681
 C          4.1717584101       -0.8768661892        0.5466980313
 H          3.4190912899       -0.8823021987        1.3185682011
 H          4.3050660198       -2.9984809393        0.3380748022
 H          6.0371974901       -2.8934725503       -1.4134518375
 H          6.8897537506       -0.7112624508       -2.1893443183
 H          5.9754350907        1.3867198198       -1.1912539694
 H          3.2227002210        2.7898158502       -1.1812221505
 H          2.2887369611        1.6212197596       -2.9726892902
 H          0.7381185909       -0.1441512405       -3.7271996097
 H         -0.4952323596       -1.5001508396       -2.0847739893
 C         -0.3999444800       -1.3172916484        0.6488033007
 H          0.0469565398       -1.0966564380        1.6279684006
 C         -0.3166387702       -2.8114265785        0.4099679413
 C          0.9449584696       -3.5326061886        0.7728339919
 C         -0.2961579506       -3.7364156580        1.5878004018
 H         -0.8178927707       -4.6785924079        1.5117696121
 H         -0.3397658307       -3.2931787175        2.5726681616
 H          1.7417503396       -2.9494552085        1.2094634518
 H          1.2802853596       -4.3369786189        0.1367627023
 H         -0.8563483601       -3.1427856688       -0.4664713886
 O         -2.6247766598       -1.8798622889       -1.2175745195
