  62
        -98.93791430
 C          2.4248462646       -0.4281131982       -0.4599923815
 C          3.2248884571       -0.3732536460        0.7083708165
 C          4.3071757746        0.6262749718        0.6938953056
 C          4.4491306929        1.4403318296       -0.3665333478
 C          5.5318592309        2.4673776940       -0.5245432209
 C          6.7568066680        1.8788083923       -1.2384048442
 C          7.2330903468        0.5492876455       -0.6531656563
 H          6.4678548237       -0.2108285461       -0.8267321480
 H          8.1197049168        0.2459139901       -1.2142634477
 C          7.5673043866        0.5977934143        0.8442775423
 H          8.5110376008        0.0736124363        1.0093011079
 H          7.7125344049        1.6321108753        1.1579338494
 C          6.5260917267       -0.0644420707        1.7486134078
 H          6.9597719198       -0.1675314584        2.7468721281
 H          6.3095472727       -1.0708390406        1.3813517368
 C          5.1989311638        0.6891249497        1.9023239779
 H          5.3948844792        1.7257061901        2.1836096817
 H          4.6388817703        0.2125437629        2.7121868971
 H          7.5666740277        2.6091659091       -1.1931211646
 H          6.5019664237        1.7186463636       -2.2886551686
 H          5.1374938115        3.2928183783       -1.1195685300
 H          5.8156331661        2.8427156983        0.4567086654
 O          3.6350202103        1.3866720418       -1.4521445344
 C          2.6198835541        0.4504581212       -1.5293141891
 O          1.9648574082        0.4926339403       -2.5910208369
 O          3.0630289845       -1.1059596224        1.7166465852
 C          1.2870835880       -1.4198010334       -0.6431778145
 C          0.0009319349       -0.8575276477       -0.0947478800
 C         -0.0892174147       -0.4051479461        1.2181941602
 C         -1.2801960276        0.1045702119        1.7017907096
 C         -2.3991424788        0.1814158026        0.8903970033
 C         -2.3190877278       -0.2628344429       -0.4221154962
 C         -1.1231609155       -0.7813625876       -0.9033946315
 H         -1.0613900065       -1.1160765305       -1.9305272897
 N         -3.4448433110       -0.1687672616       -1.2560103519
 S         -4.9176360013       -0.7432955186       -0.6920528363
 O         -4.7337572750       -1.8104438722        0.2636204802
 O         -5.6747070153       -1.0670755616       -1.8811788991
 C         -5.6569450696        0.6689701806        0.1001211353
 C         -5.8062380694        1.8265212913       -0.6383317893
 C         -6.3890713292        2.9316592844       -0.0392012708
 C         -6.8133757477        2.8600788654        1.2794167145
 C         -6.6601827795        1.6892672692        2.0060182248
 C         -6.0768170121        0.5803846842        1.4128642182
 H         -5.9329431926       -0.3491039221        1.9405839746
 H         -6.9916488229        1.6354265452        3.0305753446
 H         -7.2669141299        3.7218414648        1.7430822611
 H         -6.5100874232        3.8438335709       -0.6010952695
 H         -5.4669997043        1.8407966219       -1.6607247183
 H         -3.2781667354       -0.4661383986       -2.2063455143
 H         -3.3277598299        0.5811194826        1.2638184941
 H         -1.3381934892        0.4493404029        2.7231134200
 H          0.7825536026       -0.4628305122        1.8521585242
 H          1.1653355578       -1.5133289714       -1.7342956299
 C          1.6118932507       -2.8090512395       -0.1103311010
 C          0.9323439344       -3.4367417994        1.0654175309
 C          0.6371716013       -3.9311896267       -0.3166337600
 H          1.0124181761       -4.8974978615       -0.6179406180
 H         -0.3259102888       -3.6811687963       -0.7376862441
 H          1.5345078654       -4.0475303586        1.7204620230
 H          0.1661645822       -2.8765335611        1.5773228455
 H          2.6614187519       -3.0534150875       -0.2391117658
