  62
        -98.94608863
 C         -0.9912187556       -1.6347517003        0.6245135768
 C         -1.7681442051       -1.5344679702       -0.5544803966
 C         -2.8824598531       -0.5771453125       -0.5057572653
 C         -3.0860272491        0.1430280094        0.6123381280
 C         -4.1856429415        1.1487888360        0.7928827700
 C         -3.7383835198        2.5609491480        0.3932173752
 C         -3.0283454451        2.6257977186       -0.9584021363
 H         -2.7768990631        3.6715162280       -1.1445701525
 H         -2.0860808365        2.0763547700       -0.8941160184
 C         -3.8547400916        2.0862263332       -2.1341558735
 H         -4.9102007921        2.0524386976       -1.8611444875
 H         -3.7593806484        2.7767734328       -2.9745872721
 C         -3.4204474240        0.7095962894       -2.6403443911
 H         -3.9143439515        0.5288647735       -3.5988872112
 H         -2.3426390989        0.7076149663       -2.8224380753
 C         -3.7556849738       -0.4741284133       -1.7243086380
 H         -4.8102911357       -0.4358370976       -1.4434130297
 H         -3.5847606719       -1.3932854343       -2.2923791005
 H         -3.0538657952        2.9316185530        1.1573712293
 H         -4.6170575256        3.2082144101        0.3766949703
 H         -5.0425777398        0.8445711577        0.1946188231
 H         -4.4748788594        1.1526289453        1.8453032202
 O         -2.2875173537        0.0533410488        1.7074109972
 C         -1.2226437871       -0.8323527391        1.7408524644
 O         -0.5684353141       -0.8110338086        2.8040462058
 H          1.2897756343       -0.2696426018        0.3113969068
 C          1.6736134720       -0.9924089222       -0.3935073143
 C          1.1870095497       -2.2937942663       -0.3609198565
 C          1.6859227401       -3.2136797848       -1.2729143549
 C          2.6428988792       -2.8304808232       -2.1970131546
 C          3.1410764701       -1.5412221717       -2.2100842887
 C          2.6552614292       -0.6143116633       -1.2936069408
 N          3.1400332246        0.7018096355       -1.2716345199
 S          3.3876395830        1.4875826988        0.1877502798
 O          4.4516603854        2.4295065260       -0.0916957828
 O          3.6309912545        0.5523845861        1.2596550963
 C          1.8919365373        2.4106654348        0.4674267602
 C          1.0666711485        2.1080830515        1.5312579474
 C         -0.0631209414        2.8829096865        1.7443437635
 C         -0.3422396846        3.9451163729        0.8990464639
 C          0.4931834956        4.2325310500       -0.1700733276
 C          1.6210441287        3.4601772813       -0.3896384744
 H          2.3057553789        3.6601106098       -1.1968926185
 H          0.2696114925        5.0572425971       -0.8272315262
 H         -1.2132727477        4.5560442799        1.0767720271
 H         -0.7144886328        2.6412906010        2.5700360223
 H          1.3069872944        1.2770421472        2.1778101311
 H          3.8876230629        0.8881276594       -1.9242645748
 H          3.8989187186       -1.2496850601       -2.9213850163
 H          3.0157061317       -3.5511562983       -2.9090989159
 H          1.3226215835       -4.2279444743       -1.2665084358
 C          0.1555128740       -2.6272073954        0.6895726473
 H          0.6285180449       -2.4836407411        1.6728950880
 C         -0.3706291786       -4.0446130761        0.6047094250
 C          0.3967934944       -5.1702988669        1.2279749213
 C         -0.8833632714       -4.7010700153        1.8497408101
 H         -1.7554705499       -5.3335391560        1.7784312102
 H         -0.8300396650       -4.1334731548        2.7677662115
 H          0.4024715020       -6.1291165908        0.7319357556
 H          1.3219855422       -4.9270333622        1.7287178280
 H         -0.9060558736       -4.2366950909       -0.3177100463
 O         -1.5546903793       -2.2185379397       -1.5890195153
