  62
        -98.94479838
 C          1.9826145819        0.9195295884       -0.4410233111
 C          3.0503604123        1.2416015783        0.4339585082
 C          4.3480242301        0.6388790846        0.1132804355
 C          4.4638427614       -0.1624720185       -0.9612528931
 C          5.7236389206       -0.8396709965       -1.4283158440
 C          6.0212120941       -2.1646601127       -0.7129317832
 C          6.4966693516       -2.0307537244        0.7343748631
 H          6.8745533301       -3.0089360015        1.0384849796
 H          7.3323430141       -1.3315394791        0.7778380653
 C          5.4056595307       -1.5948464519        1.7224823230
 H          5.4497011761       -2.2244164962        2.6141001639
 H          4.4224491281       -1.7492786704        1.2715513866
 C          5.5152092188       -0.1426708449        2.1874895087
 H          6.4369884996       -0.0092472461        2.7580173783
 H          4.6739314813        0.0680433691        2.8524766877
 C          5.4906291820        0.8877842284        1.0510130189
 H          5.3510701386        1.8787160998        1.4898491051
 H          6.4367298664        0.8745052330        0.5105038426
 H          6.8012997047       -2.6745003600       -1.2831272140
 H          5.1247659680       -2.7884113515       -0.7459216306
 H          6.5699932133       -0.1625097478       -1.3097833890
 H          5.5895191374       -1.0460992810       -2.4923636521
 O          3.4170112867       -0.4412933303       -1.7816826394
 C          2.1501526719        0.0705169305       -1.5349254047
 O          1.2885943533       -0.2933499155       -2.3582618364
 O          2.9236959277        1.9988171216        1.4322100256
 C          0.6090377755        1.4926038414       -0.1344834015
 C         -0.2959147307        0.3641683650        0.2914278105
 C         -0.1733001102       -0.1539391782        1.5779176800
 C         -0.9672237293       -1.2048118149        1.9972153426
 C         -1.9003127406       -1.7636557532        1.1408578583
 C         -2.0235726722       -1.2587529562       -0.1458986411
 C         -1.2332912549       -0.1958309744       -0.5621714149
 H         -1.3334089691        0.1769937222       -1.5690908977
 N         -2.9868710984       -1.8144799104       -1.0139671674
 S         -4.5713003368       -1.7179065627       -0.4746979988
 O         -4.8022535158       -2.7405618232        0.5140971932
 O         -5.3943284374       -1.7836167494       -1.6614105926
 C         -4.6736863451       -0.1047591269        0.2797994467
 C         -4.6850006113        1.0006657724       -0.5475849340
 C         -4.6775463645        2.2636358592        0.0208502637
 C         -4.6499810650        2.3984644121        1.4005824006
 C         -4.6396212151        1.2788377253        2.2175319206
 C         -4.6486123693        0.0126966106        1.6543867462
 H         -4.6409461687       -0.8832743036        2.2528116744
 H         -4.6186349257        1.3872675679        3.2899421594
 H         -4.6370119886        3.3832340717        1.8406172125
 H         -4.6871864430        3.1370918985       -0.6111988863
 H         -4.7121068880        0.8561111509       -1.6158074693
 H         -2.9155993495       -1.4631159668       -1.9582933099
 H         -2.5340805656       -2.5802638164        1.4472871216
 H         -0.8604689281       -1.5935776158        2.9985031670
 H          0.5605861922        0.2780253064        2.2440251601
 H          0.7596888025        2.1514779301        0.7314455498
 C          0.0602881810        2.3127316467       -1.2830307700
 C         -1.1429039666        3.1772320780       -1.0542171935
 C          0.2035183051        3.8035145382       -1.2547594043
 H          0.4010915802        4.3186506549       -2.1829376304
 H          0.6976648727        4.2413767279       -0.4000936380
 H         -1.8715943854        3.2643030195       -1.8455051194
 H         -1.5669749835        3.1844142838       -0.0616168943
 H          0.1599025105        1.8237530354       -2.2447713199
