  62
        -98.93964942
 C         -2.1524187621       -0.7620274860        0.8213351478
 C         -2.8941226175        0.3977056721        1.1653890559
 C         -4.3052669859        0.4116370235        0.7675251940
 C         -4.8283241579       -0.6559420320        0.1382272359
 C         -6.2553809702       -0.8086200840       -0.3134462280
 C         -6.5486289063       -0.1684256696       -1.6772180883
 C         -6.5901516906        1.3602116234       -1.6829230304
 H         -7.0181444197        1.6655066491       -2.6398516626
 H         -7.2646293267        1.7072655966       -0.8995410992
 C         -5.2194926406        2.0321442236       -1.5192393001
 H         -4.4294301754        1.3066225163       -1.7265506589
 H         -5.1168680089        2.8342526315       -2.2535920798
 C         -4.9745393878        2.6472074089       -0.1411433076
 H         -3.9622642156        3.0597139870       -0.1248286404
 H         -5.6756028643        3.4684064537        0.0242495221
 C         -5.0998382639        1.6562748069        1.0235357088
 H         -6.1472549127        1.4105924322        1.1980314031
 H         -4.6959785344        2.1296779536        1.9219158715
 H         -5.8005045415       -0.5150565127       -2.3937764200
 H         -7.5220391935       -0.5379755530       -2.0077954305
 H         -6.9246693713       -0.3897343197        0.4385082716
 H         -6.4443633866       -1.8816007428       -0.3889466652
 O         -4.0941840584       -1.7602186156       -0.1517595266
 C         -2.7374186364       -1.8363752320        0.1489315872
 O         -2.2052913195       -2.8951015907       -0.2294428720
 O         -2.3962407773        1.3754145506        1.7865446083
 C         -0.6870597013       -0.7676894007        1.2141992090
 C          0.1772574902       -0.1945870121        0.1189598025
 C          0.0106291295       -0.5746836519       -1.2096716042
 C          0.8126078978       -0.0385609252       -2.2002539445
 C          1.8111217193        0.8665929738       -1.8837524231
 C          1.9920780541        1.2451972829       -0.5597518195
 C          1.1686319934        0.7247444007        0.4296638621
 H          1.3165215505        1.0430818545        1.4502773469
 N          3.0164446986        2.1421887790       -0.1897057974
 S          4.2425191476        1.5153053511        0.7663636658
 O          3.6869265173        1.0169155503        1.9966762152
 O          5.2250021202        2.5691230431        0.8742621473
 C          4.8990560394        0.1711389884       -0.2064413734
 C          5.9794149547        0.4070081401       -1.0342424652
 C          6.4382040011       -0.6180914277       -1.8457559326
 C          5.8047486812       -1.8516699997       -1.8241946765
 C          4.7192794374       -2.0715153925       -0.9900043800
 C          4.2588167767       -1.0516341135       -0.1723327877
 H          3.4215827704       -1.1901820986        0.4915866288
 H          4.2251082418       -3.0297793113       -0.9714854827
 H          6.1592711983       -2.6479262378       -2.4595243469
 H          7.2841287130       -0.4516920055       -2.4931115646
 H          6.4433860790        1.3800263467       -1.0156681267
 H          3.4247655087        2.6344042171       -0.9727232822
 H          2.4425750576        1.2794385913       -2.6560724768
 H          0.6666385311       -0.3374523490       -3.2270571785
 H         -0.7494386552       -1.3013539363       -1.4540427843
 H         -0.6232497561       -0.0769659180        2.0705714330
 C         -0.1904412297       -2.1271985157        1.6894157627
 C          0.8389663999       -2.9241080086        0.9508960037
 C          1.1971040808       -2.2593613950        2.2446657724
 H          1.3453862359       -2.8753472246        3.1189272059
 H          1.8316743926       -1.3843076848        2.2186150646
 H          0.7215911969       -3.9967126884        0.9342474130
 H          1.2342099529       -2.5164362373        0.0334502873
 H         -0.9698010590       -2.6928042655        2.1889476548
