  62
        -98.93910454
 C          2.1287946040        1.0433472631        0.1649686993
 C          1.9303382882       -0.1600304073       -0.5578043057
 C          2.6070294981       -1.3479616096       -0.0140048783
 C          3.3290519651       -1.2604638664        1.1162375021
 C          4.0576099619       -2.3870291056        1.7979114851
 C          5.4479727740       -2.6732316494        1.2137910687
 C          5.4521536332       -3.3536101217       -0.1557664055
 H          6.4734460381       -3.6915474043       -0.3421697210
 H          4.8165059343       -4.2388999481       -0.1221687775
 C          5.0140292092       -2.4481427681       -1.3154015794
 H          5.7058117858       -2.5672613118       -2.1522629167
 H          5.0666391219       -1.4029226854       -1.0023070908
 C          3.6088283696       -2.7325562575       -1.8468187908
 H          3.3874930465       -2.0114979251       -2.6379392704
 H          3.5766347452       -3.7329642074       -2.2843259402
 C          2.5022172752       -2.6264573615       -0.7894649760
 H          1.5334573185       -2.6262878855       -1.2966024599
 H          2.5400022820       -3.4830240564       -0.1163295203
 H          6.0013416844       -1.7332319216        1.1554247916
 H          5.9696914440       -3.3234605497        1.9196734565
 H          3.4504321744       -3.2918801857        1.7596434146
 H          4.1766920420       -2.0914065450        2.8424781572
 O          3.4714961323       -0.0933276798        1.7991647861
 C          2.8917398090        1.0746466799        1.3361482213
 O          3.1294849172        2.0739882251        2.0456939002
 O          1.2379690215       -0.2673584081       -1.6045988851
 C          1.5283508048        2.3807685091       -0.2332328499
 C          0.1485775158        2.5764297615        0.3516409434
 C         -0.2034314360        3.7945798520        0.9215256069
 C         -1.4748818653        3.9933839173        1.4279030010
 C         -2.4167344645        2.9831860355        1.3735898013
 C         -2.0713243076        1.7552333173        0.8172102094
 C         -0.7958825511        1.5608915540        0.3065845797
 H         -0.5476359303        0.6087754602       -0.1362923551
 N         -3.0009934014        0.7051633246        0.8074015447
 S         -2.8889607876       -0.5369637274       -0.3269848182
 O         -1.8842219421       -1.4729119317        0.1093903653
 O         -2.7547608576        0.0089067165       -1.6582478041
 C         -4.5080946920       -1.2609654020       -0.1321784133
 C         -5.5207703260       -0.8979699173       -0.9999619416
 C         -6.7840373207       -1.4400818923       -0.8222327755
 C         -7.0132017252       -2.3295817837        0.2166444512
 C         -5.9869370640       -2.6858826517        1.0790651968
 C         -4.7215554940       -2.1477396649        0.9061646188
 H         -3.8910227092       -2.4009268689        1.5444747455
 H         -6.1676078332       -3.3802997734        1.8836337865
 H         -7.9967817718       -2.7504080787        0.3532396625
 H         -7.5825268848       -1.1674237128       -1.4932635762
 H         -5.2928112422       -0.2102680937       -1.7984094871
 H         -3.9538292145        1.0144622841        0.9401499423
 H         -3.4096482864        3.1351686122        1.7681434814
 H         -1.7361295077        4.9442011826        1.8667739131
 H          0.5316076732        4.5837445183        0.9748585645
 H          2.1849069883        3.1446749082        0.2078542714
 C          1.4744504788        2.6080429952       -1.7323026169
 C          1.5434637584        4.0061421798       -2.2655341039
 C          2.7029669533        3.0746572493       -2.4506690278
 H          2.9029706051        2.6795520211       -3.4351738676
 H          3.5913669610        3.2424489008       -1.8587985596
 H          0.9419530255        4.2559608269       -3.1259516989
 H          1.6523034795        4.8112574205       -1.5549687014
 H          0.8334223947        1.9028229655       -2.2460572111
