  62
        -98.94290952
 C          2.6469368574        1.1835925043        0.2565560056
 C          2.7749156349        0.3304193033       -0.8661967716
 C          3.7694898692       -0.7471027362       -0.7467016228
 C          4.4988596564       -0.8601394781        0.3773480625
 C          5.4966110910       -1.9467519586        0.6515275769
 C          4.8378479571       -3.1398186565        1.3584745093
 C          3.5490102690       -3.6197170753        0.6908913740
 H          2.7892248100       -2.8395782452        0.7796314922
 H          3.1911112676       -4.4818568129        1.2577342357
 C          3.7055505962       -4.0086088585       -0.7859100714
 H          3.1812226745       -4.9510013952       -0.9576576859
 H          4.7582704696       -4.1775080751       -1.0152455400
 C          3.1297902565       -2.9924731095       -1.7740223631
 H          2.1020727862       -2.7491218156       -1.4917778374
 H          3.0954113175       -3.4600917010       -2.7617977867
 C          3.9145700267       -1.6819298869       -1.9149107089
 H          3.5144716946       -1.1461965447       -2.7807682727
 H          4.9669939376       -1.9015646319       -2.1046708702
 H          4.6029098713       -2.8474061465        2.3844479080
 H          5.5577984488       -3.9593696551        1.3948953111
 H          6.2783614743       -1.5406105347        1.2955479444
 H          5.9437340694       -2.2683034012       -0.2870818360
 O          4.3692298633       -0.0086790455        1.4253157971
 C          3.4438337094        1.0182299163        1.3956136381
 O          3.4276727407        1.7172591587        2.4281500855
 O          2.1030603089        0.4355575095       -1.9288379406
 C          1.6638976710        2.3431894707        0.3228436425
 C          0.2628760389        1.8679827759        0.6292707383
 C         -0.3935404451        2.2851064669        1.7813157929
 C         -1.6813291289        1.8568440393        2.0520671910
 C         -2.3375876900        1.0005183170        1.1860834813
 C         -1.6907472068        0.5777874720        0.0321551848
 C         -0.4033396479        1.0181003030       -0.2419586312
 H          0.0961909796        0.6852633944       -1.1398164405
 N         -2.3308142725       -0.3163770269       -0.8417824928
 S         -3.9130065586       -0.0089582435       -1.3033255591
 O         -4.0838433820       -0.7038347647       -2.5605470739
 O         -4.2007135908        1.4068051071       -1.3082205953
 C         -4.8869825341       -0.8250103517       -0.0555020525
 C         -4.6379469024       -2.1601899191        0.1952076544
 C         -5.3946982360       -2.8131348521        1.1549244021
 C         -6.3841615694       -2.1250192945        1.8415433740
 C         -6.6243340609       -0.7856764936        1.5758154608
 C         -5.8700994683       -0.1264214428        0.6174687931
 H         -6.0173746999        0.9154662431        0.3813596661
 H         -7.3941448685       -0.2526311918        2.1103468559
 H         -6.9713349897       -2.6360932598        2.5881133099
 H         -5.2105091549       -3.8545271383        1.3646689243
 H         -3.8620158399       -2.6590943044       -0.3613361631
 H         -1.7640579549       -0.5767267832       -1.6361321051
 H         -3.3392403623        0.6614095284        1.3940752597
 H         -2.1790356553        2.1900455054        2.9499825839
 H          0.1173943977        2.9413294086        2.4708808872
 H          1.9973784646        2.9616079822        1.1667696857
 C          1.6766331538        3.2014752665       -0.9282051449
 C          1.2004313748        4.6188024620       -0.8416956363
 C          2.6581817168        4.3276452536       -1.0336725197
 H          3.1060366471        4.5324891006       -1.9944858646
 H          3.3246242958        4.4884932463       -0.1984904697
 H          0.6421379916        5.0254853447       -1.6710755519
 H          0.8791746755        4.9810208927        0.1231749515
 H          1.4550659668        2.6502072853       -1.8325085209
