  62
        -98.94342898
 C          1.9518382931        0.8569064202        0.0444411219
 C          2.2410637447       -0.1104620435        1.0342298793
 C          2.5307100445       -1.4643527182        0.5465985671
 C          2.4639968695       -1.7146926227       -0.7739373774
 C          2.7766446857       -3.0366628643       -1.4122947699
 C          4.2577872810       -3.1288702296       -1.8058737816
 C          5.2195673990       -2.7291969417       -0.6869720200
 H          6.2345491957       -2.8601743605       -1.0679454241
 H          5.0908887252       -1.6662511709       -0.4705181965
 C          5.0523164401       -3.5330924406        0.6099428032
 H          6.0404303700       -3.8238001618        0.9724737517
 H          4.4974330391       -4.4500134377        0.4086414260
 C          4.3689900969       -2.7686987597        1.7452996182
 H          4.4950237621       -3.3426983725        2.6671363583
 H          4.8642358839       -1.8051130689        1.8891537826
 C          2.8663656507       -2.5140758059        1.5685591099
 H          2.3559387500       -3.4517869287        1.3376887178
 H          2.4759874764       -2.1393611545        2.5197827485
 H          4.4299641457       -2.4677622414       -2.6581918649
 H          4.4674913953       -4.1526394555       -2.1207697469
 H          2.5210632852       -3.8361472916       -0.7194541701
 H          2.1616886412       -3.1367132401       -2.3082669699
 O          2.1501602959       -0.7673706216       -1.6938577852
 C          1.8845951140        0.5385164773       -1.3117319516
 O          1.6130116129        1.3052830790       -2.2557342811
 H         -0.5289116235        0.7022175795        0.3267698140
 C         -0.7588968880        1.7159436262        0.0311358783
 C          0.2454663113        2.6752767172        0.0310837812
 C         -0.0794698261        3.9741289542       -0.3404625387
 C         -1.3746836296        4.2932352920       -0.7102514616
 C         -2.3676992101        3.3321962920       -0.7198794593
 C         -2.0516356615        2.0268996538       -0.3552678187
 N         -3.0277723193        1.0194033623       -0.4116981893
 S         -2.8282636565       -0.4293790542        0.4161759334
 O         -2.5887659764       -0.1838162967        1.8220437050
 O         -1.8494447644       -1.2347602866       -0.2720817813
 C         -4.4519285749       -1.1298703865        0.1880606791
 C         -4.7600485646       -1.6922517557       -1.0364945294
 C         -6.0284344615       -2.2141221861       -1.2341770124
 C         -6.9629032830       -2.1651391575       -0.2100845539
 C         -6.6388456898       -1.5995207945        1.0137680910
 C         -5.3720924154       -1.0745504598        1.2175828913
 H         -5.0713647510       -0.6320475011        2.1535677149
 H         -7.3660624849       -1.5655348371        1.8088255492
 H         -7.9489955082       -2.5728817638       -0.3665935257
 H         -6.2827024069       -2.6565163211       -2.1838207909
 H         -3.9976749061       -1.7150348969       -1.7979804026
 H         -3.9750722555        1.3669118885       -0.3657022920
 H         -3.3748862147        3.5809184724       -1.0164696208
 H         -1.6134710985        5.3064279570       -0.9958982214
 H          0.6827856709        4.7360831416       -0.3419018913
 C          1.6335493381        2.2760517521        0.4715371971
 H          1.6469267721        2.2598903765        1.5729604761
 C          2.7091322789        3.2270391960       -0.0152606827
 C          3.1052653681        4.4171846428        0.8050980771
 C          4.0298317173        3.2437511769        0.6927244751
 H          4.9296866729        3.3455140696        0.1049530623
 H          4.1380075615        2.5925881420        1.5482001647
 H          2.5962118704        4.5691327255        1.7449787126
 H          3.3743413752        5.3289091047        0.2933206364
 H          2.7182968562        3.3196960826       -1.0955840199
 O          2.2582668546        0.1486645040        2.2701436775
