  62
        -98.94310652
 C         -2.5566028617       -0.1894059636        0.5354133489
 C         -2.2088398889        0.3531809990       -0.7271362209
 C         -2.0025425112        1.8095261293       -0.7661948763
 C         -2.1086606646        2.5250125795        0.3667754743
 C         -1.8961286005        4.0070789236        0.4758698036
 C         -0.4415588929        4.3456760118        0.8269645814
 C          0.5915464734        3.6528004267       -0.0620091142
 H          1.5758628910        4.0181183223        0.2411977625
 H          0.5813587620        2.5774751575        0.1347085106
 C          0.3991405394        3.8881586995       -1.5666846581
 H         -0.2322117576        4.7630635983       -1.7299171903
 H          1.3730864258        4.1012705726       -2.0119074515
 C         -0.1812113322        2.6882086829       -2.3180321523
 H          0.3689800509        1.7869564592       -2.0365406092
 H         -0.0329219668        2.8498954541       -3.3894207728
 C         -1.6763253478        2.4245856713       -2.0977834690
 H         -2.2415975456        3.3481306412       -2.2447587076
 H         -1.9995836906        1.6985140615       -2.8495895432
 H         -0.3152463255        5.4281006455        0.7569228280
 H         -0.2554442771        4.0465576439        1.8613988281
 H         -2.1716495002        4.4760670581       -0.4669006548
 H         -2.5474062360        4.3874860168        1.2651647215
 O         -2.4020626614        1.9646320449        1.5696277934
 C         -2.6083013633        0.6001966370        1.6853433605
 O         -2.8344437393        0.2160163521        2.8521796437
 H         -0.1870783897       -1.2506163532        1.1390611280
 C         -0.3293826088       -2.0353972442        0.4084116777
 C         -1.6192448578       -2.4196044117        0.0630713311
 C         -1.7826270702       -3.4325098400       -0.8716154658
 C         -0.6764722325       -4.0220093267       -1.4598972419
 C          0.6037444874       -3.6058996675       -1.1455124081
 C          0.7768499498       -2.5983614636       -0.2026442961
 N          2.0614206223       -2.1457258800        0.1554696678
 S          2.2215393153       -0.4879559242        0.4530066798
 O          1.8516582485       -0.2247988277        1.8230883748
 O          1.5283355263        0.2724402868       -0.5591836784
 C          3.9852552257       -0.2939809594        0.2741695641
 C          4.4957051910        0.3410101168       -0.8415200431
 C          5.8705652934        0.4632721867       -0.9725463802
 C          6.7059262394       -0.0518040602        0.0069167383
 C          6.1782861181       -0.6863443886        1.1221287188
 C          4.8051431669       -0.8099764664        1.2604287468
 H          4.3486644917       -1.2849548624        2.1131523312
 H          6.8306723613       -1.0834070793        1.8829664554
 H          7.7750444140        0.0443351539       -0.0976577846
 H          6.2827855821        0.9589264721       -1.8365804026
 H          3.8059585912        0.7289232053       -1.5739462563
 H          2.7754429531       -2.4689772204       -0.4840744386
 H          1.4622129405       -4.0489934886       -1.6273190182
 H         -0.8155938410       -4.8032938519       -2.1918584143
 H         -2.7735727015       -3.7399505373       -1.1627730562
 C         -2.7536493879       -1.6841910078        0.7337319660
 H         -2.6506808009       -1.8375390440        1.8218032146
 C         -4.1323066185       -2.2019516464        0.3536174170
 C         -5.3279110567       -1.2979820567        0.3770220678
 C         -4.8099657893       -1.8217316894       -0.9270436976
 H         -5.3903492890       -2.5744237321       -1.4404986648
 H         -4.2870177478       -1.1463000758       -1.5846722245
 H         -6.2587415738       -1.6894460174        0.7592603441
 H         -5.1609400403       -0.2569880734        0.6144989708
 H         -4.2935125140       -3.2154638853        0.7084057136
 O         -2.0938374749       -0.3288494144       -1.7780544546
