  62
        -98.94799212
 C         -2.3461703646       -0.2256676301        0.1440117799
 C         -1.7585224956        0.3858035263       -0.9896814379
 C         -1.6626494344        1.8498240330       -0.9493208926
 C         -2.0141342982        2.5096114124        0.1687824706
 C         -1.9602825493        3.9991787966        0.3734813562
 C         -0.5663671576        4.5210750049        0.7488192136
 C          0.4367349891        4.5851384625       -0.4037584078
 H         -0.0169579066        5.0999648518       -1.2519427431
 H          1.2760316351        5.1939995568       -0.0614161433
 C          0.9749440072        3.2191965157       -0.8522743099
 H          0.8026461294        2.4815636059       -0.0648326871
 H          2.0579860552        3.2830090457       -0.9886837795
 C          0.3847404619        2.7037246231       -2.1640831558
 H          0.6669265862        3.3745981062       -2.9791135182
 H          0.8201301596        1.7236338135       -2.3675750568
 C         -1.1421819662        2.5597929897       -2.1645176370
 H         -1.6086896698        3.5419397156       -2.2455585493
 H         -1.4259660082        1.9653855104       -3.0369453415
 H         -0.1601041838        3.8909136646        1.5444051411
 H         -0.6923167011        5.5293042048        1.1512575613
 H         -2.3118771356        4.5084549379       -0.5246746437
 H         -2.6463493823        4.2248905703        1.1928972440
 O         -2.4919164034        1.8766014274        1.2732065296
 C         -2.6634946682        0.5044295144        1.2889258594
 O         -3.1091084273        0.0533700626        2.3670954103
 H         -0.6322009703       -1.2070243103        1.9645726555
 C         -0.2630429670       -1.8923558877        1.2114678920
 C         -1.1270737392       -2.3369352856        0.2170334969
 C         -0.6391009471       -3.2206628499       -0.7356345549
 C          0.6898815868       -3.6123679091       -0.7142648839
 C          1.5619765997       -3.1088933730        0.2344767233
 C          1.0739699163       -2.2435555268        1.2044418979
 N          1.9931505547       -1.6301307615        2.1110990345
 S          2.2891663936       -0.0387634248        1.6162059379
 O          3.2681618455        0.4874609581        2.5436811277
 O          1.0632993016        0.7256537572        1.5162917982
 C          3.0163718888       -0.2830461302        0.0147849609
 C          2.1945283478       -0.3888931035       -1.0897830270
 C          2.7685271580       -0.6397641274       -2.3262589325
 C          4.1433599124       -0.7801649747       -2.4358928525
 C          4.9543633344       -0.6704350769       -1.3160357549
 C          4.3873839716       -0.4237452314       -0.0761501637
 H          4.9737698296       -0.3305762822        0.8231509749
 H          6.0231895446       -0.7799489037       -1.4047537461
 H          4.5834662853       -0.9767839066       -3.4007815512
 H          2.1303738342       -0.7285410326       -3.1911395535
 H          1.1270073607       -0.2777883878       -0.9754872786
 H          1.6386592588       -1.5955136468        3.0585532638
 H          2.6085503424       -3.3659667447        0.2324843277
 H          1.0565015267       -4.2943054671       -1.4655627545
 H         -1.2948440609       -3.5849217208       -1.5091926816
 C         -2.5118519091       -1.7380735874        0.2045169315
 H         -2.9903364060       -1.9522172503        1.1710335181
 C         -3.3978095006       -2.2446184338       -0.9114021601
 C         -4.1015535482       -3.5593865098       -0.7646490626
 C         -4.8807415995       -2.2809526808       -0.7023989768
 H         -5.5239172789       -2.0255561040       -1.5309338284
 H         -5.2564448058       -1.9547434754        0.2568512780
 H         -3.9523794271       -4.1060366953        0.1542688348
 H         -4.2144779232       -4.1845738353       -1.6371108667
 H         -3.0396660300       -1.9605223973       -1.8933106704
 O         -1.3450448098       -0.2514821995       -1.9932240839
