  62
        -98.93820660
 C         -2.0980015899       -0.8678603591       -0.3879371910
 C         -3.1056096598       -1.0505571500        0.5853376189
 C         -4.4064687397       -0.4029792093        0.3290395199
 C         -4.5610221396        0.3092170222       -0.8028820091
 C         -5.7677774794        1.0919607132       -1.2462064380
 C         -5.9113811289        2.4279659923       -0.4973926262
 C         -5.6471627887        2.3582210703        1.0047861136
 H         -5.6545909383        3.3811014898        1.3906931749
 H         -4.6461505388        1.9570556297        1.1740868530
 C         -6.6622006288        1.5491433996        1.8087160027
 H         -7.6521798887        1.9941779100        1.6853274534
 H         -6.3874535387        1.6385461481        2.8629165428
 C         -6.7547091794        0.0615731200        1.4649403009
 H         -7.2997199195       -0.0905128586        0.5372787407
 H         -7.3433163394       -0.4180643408        2.2526188003
 C         -5.4161949996       -0.6691662603        1.4195947997
 H         -5.6111518599       -1.7480789902        1.3854480484
 H         -4.8862869694       -0.5025460817        2.3643141499
 H         -6.9149163288        2.8179328328       -0.6753460856
 H         -5.1945240487        3.1322189026       -0.9267698454
 H         -6.6636539496        0.4874208033       -1.1399327786
 H         -5.6329339795        1.3029277145       -2.3093307077
 O         -3.5606346797        0.4519084931       -1.7189943691
 C         -2.3138695098       -0.1193590175       -1.5438681900
 O         -1.5077464399        0.1030808934       -2.4674984898
 O         -2.9272072299       -1.7196922414        1.6392539280
 C         -0.7347037001       -1.4953098298       -0.1606691220
 C          0.3153678903       -0.4138658202       -0.1086006608
 C          0.1521888207        0.6307140887        0.7983937606
 C          1.0744488211        1.6559493183        0.8730626618
 C          2.1872226609        1.6600708290        0.0498512916
 C          2.3694551705        0.6148768101       -0.8445640497
 C          1.4419788202       -0.4181171895       -0.9148290209
 H          1.5974504098       -1.2174753686       -1.6220489420
 N          3.5083289204        0.6016388708       -1.6651386399
 S          4.9828888806        0.9822889995       -0.9745418796
 O          5.1272304310        2.4137778693       -0.8826147578
 O          5.9673009603        0.3003177102       -1.7850536106
 C          4.9193482306        0.2754443974        0.6632873895
 C          4.7410654502       -1.0892909327        0.7770927478
 C          4.6497463402       -1.6501918143        2.0402648971
 C          4.7363389006       -0.8410969957        3.1630650481
 C          4.9216175410        0.5261612444        3.0323446198
 C          5.0123915910        1.0928535860        1.7709545605
 H          5.1531015813        2.1514042861        1.6244989018
 H          4.9907140413        1.1526197732        3.9070367506
 H          4.6594606206       -1.2802241770        4.1452425775
 H          4.5076863999       -2.7138064044        2.1451318057
 H          4.6829168299       -1.6920191615       -0.1148205130
 H          3.5733627800       -0.2000634984       -2.2742354309
 H          2.9072233712        2.4616194188        0.0789067626
 H          0.9263600814        2.4629707375        1.5744695728
 H         -0.7183131992        0.6301454582        1.4400573507
 H         -0.7932778301       -1.9637148410        0.8327045774
 C         -0.4647546305       -2.5708814885       -1.1909028334
 C          0.4755777191       -3.6948667592       -0.8755712950
 C         -0.9988838809       -3.9504803387       -0.9541044751
 H         -1.3844314412       -4.5051027875       -1.7964993757
 H         -1.5402417209       -4.1215899997       -0.0352543452
 H          1.1032784789       -4.0811780084       -1.6646792955
 H          0.9371805893       -3.6993025406        0.1000159150
 H         -0.4942874106       -2.1933694672       -2.2071629329
