  62
        -98.94505635
 C         -0.7407650889       -1.6089110509       -1.1065505502
 C         -2.0305363090       -1.8220329817       -0.5577890109
 C         -3.0006366997       -0.7364539524       -0.7265465017
 C         -2.6328802801        0.3881850977       -1.3652229317
 C         -3.4912083309        1.6033869970       -1.5892504825
 C         -3.5259045122        2.5550742673       -0.3852298027
 C         -4.3735071425        2.0767465670        0.7942896669
 H         -5.3579068621        1.7706874962        0.4372616365
 H         -4.5165683234        2.9353114570        1.4537543367
 C         -3.7371884721        0.9391667176        1.6054340576
 H         -3.8385853128        1.1553678378        2.6721762974
 H         -2.6648559120        0.8967996283        1.3969004781
 C         -4.3555169810       -0.4386610729        1.3656441476
 H         -5.3868282812       -0.4440696035        1.7275799670
 H         -3.7891947708       -1.1704061923        1.9476700180
 C         -4.3523890699       -0.8944164132       -0.0986854323
 H         -5.1008230300       -0.3410164039       -0.6660137329
 H         -4.6072478391       -1.9571468634       -0.1244340822
 H         -3.9262164627        3.5109851869       -0.7321915332
 H         -2.5026901725        2.7238923081       -0.0385595422
 H         -4.5068547905        1.2986833062       -1.8439572529
 H         -3.0635739608        2.1363970371       -2.4413550124
 O         -1.4012863700        0.5439543784       -1.9112798311
 C         -0.4138385393       -0.4269277608       -1.7727471504
 O          0.6678368207       -0.1088275702       -2.2987730599
 O         -2.3560205986       -2.8810733918        0.0457497692
 C          0.3019800618       -2.6753521801       -0.8155415594
 C          0.9213959108       -2.3720609393        0.5266260908
 C          1.0531639110       -3.3414878190        1.5129754711
 C          1.5519870401       -3.0077429684        2.7608394313
 C          1.8941883390       -1.7007678380        3.0589686212
 C          1.7671249888       -0.7249271284        2.0764930009
 C          1.3198256998       -1.0740486990        0.8130950307
 H          1.2403161696       -0.3125666592        0.0543910505
 N          2.0799412177        0.6190663219        2.3242682907
 S          1.1659158073        1.8144639111        1.5804336499
 O          1.3438280960        2.9755409714        2.4311311498
 O         -0.2024934723        1.3989309501        1.3767343993
 C          1.9826488479        2.1289490013        0.0325610203
 C          3.3470850381        1.9431794822       -0.0636888889
 C          3.9781797285        2.2411438524       -1.2599546587
 C          3.2408013887        2.7241004516       -2.3299645792
 C          1.8734256085        2.9113496607       -2.2143504199
 C          1.2358412781        2.6118499905       -1.0217647702
 H          0.1694484980        2.7229247398       -0.9012065008
 H          1.2963632987        3.2756205801       -3.0489580403
 H          3.7330450291        2.9507946117       -3.2626153490
 H          5.0415841887        2.0909410731       -1.3560181581
 H          3.8878205179        1.5594234328        0.7855433814
 H          2.2931508071        0.8466790023        3.2844180908
 H          2.2462018683       -1.4339732076        4.0437608713
 H          1.6500078702       -3.7690837181        3.5197892115
 H          0.7391397418       -4.3541531193        1.3069217412
 H         -0.2642547076       -3.6150401205       -0.7134123095
 C          1.3246105225       -2.8716048297       -1.9227886288
 C          2.7466607421       -2.4185027986       -1.8146974282
 C          2.4232593631       -3.8795322988       -1.7544435080
 H          2.6838615540       -4.5044635988       -2.5950099977
 H          2.5051268029       -4.3693437085       -0.7959173079
 H          3.2113339723       -2.0205567985       -2.7032770480
 H          3.0549305213       -1.9242642382       -0.9068145082
 H          0.8725410130       -2.8014738602       -2.9064112391
