  62
        -98.93827157
 C         -1.7936324467       -1.2424008609       -0.0324309109
 C         -3.0391216789       -0.9378506206        0.5645539911
 C         -3.8638507309        0.0769616937       -0.1126365225
 C         -3.4005806953        0.6633134580       -1.2298513838
 C         -4.0788146938        1.6888518968       -2.1037736310
 C         -4.8393033867        2.8255004096       -1.4076321261
 C         -4.2363083873        3.2896746305       -0.0735923173
 H         -3.2413810599        2.8601693415        0.0581265317
 H         -4.1201300371        4.3749741377       -0.0945131222
 C         -5.1093505266        2.9340918072        1.1323875553
 H         -4.8367796170        3.5841833844        1.9674500286
 H         -6.1518403576        3.1433852614        0.8829915057
 C         -4.9927953467        1.4918635460        1.6244329591
 H         -4.0165810879        1.3373605625        2.0926186199
 H         -5.7456792113        1.3401554759        2.4016377179
 C         -5.1709290898        0.4083300137        0.5484494832
 H         -5.4963610576       -0.5083461987        1.0479884257
 H         -5.9282811065        0.6947803185       -0.1772012171
 H         -4.8626223849        3.6631892564       -2.1067671940
 H         -5.8734966966        2.5261880192       -1.2436259233
 H         -3.2807226424        2.1079910923       -2.7215730173
 H         -4.7620239242        1.1619343194       -2.7763469019
 O         -2.1843745451        0.3532845842       -1.7620767281
 C         -1.3568786837       -0.6070685739       -1.1943033866
 O         -0.2851868059       -0.7799940880       -1.8016220254
 O         -3.4516137401       -1.4973702866        1.6165240089
 C         -0.9250907140       -2.3108249262        0.5999046433
 C          0.4566436243       -1.8142307642        0.9527374658
 C          1.5332788252       -2.6872006091        1.0739944557
 C          2.7901576675       -2.2178483574        1.4121339151
 C          3.0117288059       -0.8675801076        1.6123386995
 C          1.9477536459        0.0143250424        1.4770837961
 C          0.6804289515       -0.4638991015        1.1775875800
 H         -0.1425210061        0.2348498600        1.0919793791
 N          2.1716894601        1.3942234177        1.6160884136
 S          3.5333950111        2.0309143446        0.8741309582
 O          4.6499534720        1.9485145139        1.7845223703
 O          3.1550540329        3.3700371583        0.4762496637
 C          3.8670790129        1.0163848797       -0.5577020344
 C          5.1541176691        0.5605037554       -0.7647940927
 C          5.4162272604       -0.2331785311       -1.8695451266
 C          4.3891940296       -0.5663173151       -2.7394708833
 C          3.1028544817       -0.0994443185       -2.5191699985
 C          2.8380971478        0.7058521376       -1.4235747951
 H          1.8368642852        1.0627002460       -1.2418224041
 H          2.2886327710       -0.3673024007       -3.1733108712
 H          4.5892229140       -1.1955678097       -3.5923530916
 H          6.4164637445       -0.5959484089       -2.0434305165
 H          5.9177361406        0.8286996041       -0.0526904960
 H          1.3599903843        1.9607894405        1.4184031603
 H          3.9857803540       -0.4814976358        1.8665419591
 H          3.6114337697       -2.9105248545        1.5109079675
 H          1.3841185722       -3.7404745940        0.9019607160
 H         -1.4375950708       -2.5864579609        1.5345943924
 C         -0.8780003103       -3.5307502319       -0.3029683256
 C         -0.8991903494       -4.9150372654        0.2710654153
 C         -2.1068202494       -4.3784971873       -0.4346043344
 H         -2.3608428940       -4.7739083048       -1.4066028078
 H         -2.9646299087       -4.0991366200        0.1599439853
 H         -0.3217307444       -5.6845757550       -0.2188211572
 H         -0.9493582855       -5.0137712426        1.3450843135
 H         -0.2932675535       -3.3570454255       -1.1994014418
