  62
        -98.94532804
 C         -2.3614418319       -0.3848466525        0.0944849229
 C         -1.5598385527        0.2760166160       -0.8629960621
 C         -1.6037411824        1.7488002550       -0.8578052043
 C         -2.3469314732        2.3793508704        0.0679712689
 C         -2.6138660048        3.8549947241        0.2468429777
 C         -1.4861671050        4.8455229755       -0.0521298232
 C         -0.0956900600        4.3992457178        0.4219389077
 H          0.3471168827        5.1918382216        1.0284059057
 H         -0.1765906956        3.5127965243        1.0551511034
 C          0.8587654527        4.0923704995       -0.7329783062
 H          0.7531469948        4.8616089233       -1.5016079467
 H          1.8846853807        4.1342581968       -0.3585215226
 C          0.6635257999        2.7131421253       -1.3568457036
 H          0.9020207665        1.9533630357       -0.6086823284
 H          1.3806445822        2.6026446266       -2.1742163498
 C         -0.7501161393        2.4264163214       -1.8924216931
 H         -1.2192526753        3.3316526286       -2.2710481408
 H         -0.6611068165        1.7125433706       -2.7158088934
 H         -1.4528623337        5.0527277210       -1.1205329549
 H         -1.7565488709        5.7810683557        0.4414060039
 H         -3.4836707009        4.1103556275       -0.3673372502
 H         -2.9205837438        3.9610883102        1.2909656611
 O         -3.0604992720        1.6987588463        1.0126750692
 C         -3.0866398739        0.3170460869        1.0530754422
 O         -3.7828735256       -0.1610806610        1.9738992589
 H         -0.4245336748       -0.9761859962        1.6533965263
 C         -0.1125052555       -1.8420886845        1.0874000684
 C         -1.0115959911       -2.4665806947        0.2327573564
 C         -0.5861697062       -3.5865301559       -0.4715096170
 C          0.7127607948       -4.0468400541       -0.3404309558
 C          1.6188414158       -3.3896547134        0.4717654310
 C          1.2000132597       -2.2733161968        1.1862212784
 N          2.0879218347       -1.5480337880        2.0089455901
 S          2.3892879005        0.0438749568        1.5748969616
 O          3.3661520721        0.5146446934        2.5339655949
 O          1.1530888159        0.7790850529        1.5144018206
 C          3.1585944736       -0.0733669035       -0.0318784794
 C          4.5297770753        0.0814792951       -0.1105985285
 C          5.1553084196       -0.0660524301       -1.3374221127
 C          4.4026527589       -0.3752486314       -2.4605589983
 C          3.0291752915       -0.5324004894       -2.3632813040
 C          2.3938640222       -0.3828616227       -1.1393050692
 H          1.3235253567       -0.4924858542       -1.0552400708
 H          2.4351456744       -0.7712815085       -3.2307564377
 H          4.8879131947       -0.4932296893       -3.4166609461
 H          6.2235347232        0.0583601886       -1.4131769234
 H          5.0714410842        0.3226656115        0.7898318481
 H          2.9702761388       -2.0169172449        2.1646133721
 H          2.6395994561       -3.7317932487        0.5534686582
 H          1.0285570139       -4.9180362970       -0.8936232116
 H         -1.2716495817       -4.0966837287       -1.1282683108
 C         -2.4072055892       -1.9016995418        0.1285426780
 H         -2.9565291947       -2.1690470853        1.0437587653
 C         -3.1743058879       -2.4208027197       -1.0714551811
 C         -3.9753317694       -3.6834981651       -0.9734777207
 C         -4.6710230150       -2.3587378341       -1.0518018175
 H         -5.1891051259       -2.0980824737       -1.9624457002
 H         -5.1365239876       -1.9675895779       -0.1584543585
 H         -3.9808075182       -4.2009280667       -0.0260096212
 H         -4.0209544488       -4.3340418840       -1.8338934375
 H         -2.6771354419       -2.1984729428       -2.0087703352
 O         -0.8538074541       -0.3382466741       -1.7058567804
