  62
        -98.94277059
 C         -1.8158294601       -0.9965081298       -0.2308835787
 C         -3.1927278601       -1.3203377995       -0.1235956186
 C         -4.1370856800       -0.2585916898       -0.4879081398
 C         -3.6718043298        0.9396399597       -0.8844247510
 C         -4.5057844696        2.1160959593       -1.3136965124
 C         -5.0214224697        2.9746984006       -0.1505408034
 C         -6.1386955399        2.3422970416        0.6803103271
 H         -6.5518578099        3.1297817423        1.3137762763
 H         -6.9369833598        2.0057991110        0.0180167374
 C         -5.6832579101        1.1795135225        1.5731929184
 H         -4.5963328501        1.2064775225        1.6799222086
 H         -6.1055661603        1.3009143536        2.5732633482
 C         -6.0969592502       -0.2043518780        1.0723462098
 H         -7.1857270002       -0.2901528079        1.0886690598
 H         -5.6904086104       -0.9532811473        1.7568822007
 C         -5.6023780000       -0.5379517895       -0.3411742697
 H         -6.1726770599        0.0228155097       -1.0816118004
 H         -5.7569550701       -1.6057744597       -0.5150971986
 H         -5.3989535996        3.9068887102       -0.5770089344
 H         -4.1798913798        3.2234653512        0.5000459665
 H         -3.8654248095        2.7377852886       -1.9431637530
 H         -5.3483644196        1.7683927488       -1.9122114321
 O         -2.3443446398        1.2186050395       -0.9560448811
 C         -1.3841275399        0.2732201498       -0.6144855800
 O         -0.2164335699        0.6951044996       -0.6965400503
 O         -3.6115299503       -2.4441763391        0.2614210725
 C         -0.8098002502       -2.0708508595        0.1379175425
 C          0.2669345997       -1.5094630287        1.0327332321
 C         -0.1042588404       -0.9572321573        2.2569072115
 C          0.8437787195       -0.4354348465        3.1142021610
 C          2.1849841195       -0.4579757170        2.7723508513
 C          2.5685271797       -1.0133929883        1.5580821119
 C          1.6112452097       -1.5369970692        0.6975895123
 H          1.9356928798       -1.9390633402       -0.2469014972
 N          3.9291352397       -1.0954305488        1.2153760422
 S          4.5227992500       -0.6075311705       -0.2692085083
 O          3.8428591100       -1.3036327815       -1.3298336076
 O          5.9496599099       -0.8295544805       -0.1736330878
 C          4.2109615901        1.1474207295       -0.3463131902
 C          2.9219088202        1.6016296294       -0.5396411008
 C          2.6947832103        2.9697665694       -0.5454213823
 C          3.7468577204        3.8529773895       -0.3608581731
 C          5.0356243103        3.3783327496       -0.1668015924
 C          5.2709347002        2.0135295096       -0.1547402609
 H          6.2552272201        1.5985522296       -0.0089414303
 H          5.8537473104        4.0658400297       -0.0235738230
 H          3.5603920605        4.9155201695       -0.3680121742
 H          1.6870175604        3.3245411494       -0.6928489628
 H          2.1072333702        0.9089746993       -0.6791470702
 H          4.5532455396       -0.7789379881        1.9440175619
 H          2.9286532495       -0.0526296964        3.4417480609
 H          0.5387602994       -0.0056814155        4.0565332306
 H         -1.1525958205       -0.9388142570        2.5236275813
 H         -1.3918671904       -2.7984514888        0.7292811832
 C         -0.2537067302       -2.8327083808       -1.0557727466
 C         -1.0438531900       -2.9928419521       -2.3190876465
 C          0.1899065801       -2.1434642822       -2.3097401172
 H          1.0789942001       -2.5045282928       -2.8064700267
 H          0.0776796502       -1.0716634522       -2.3576045284
 H         -1.0117915800       -3.9456089426       -2.8259155655
 H         -2.0027419199       -2.4984468020       -2.3782134072
 H          0.3304204597       -3.6951875106       -0.7477522856
