  62
        -98.93474287
 C         -2.5746282002       -0.0397717286       -0.1308987201
 C         -2.3311366008       -1.1511884887       -0.9739189401
 C         -1.8292694914       -2.3776980690       -0.3354862701
 C         -1.6362913214       -2.3933905391        0.9942441399
 C         -1.1927261019       -3.5364170793        1.8737959198
 C         -0.0580811524       -4.4329285999        1.3648961598
 C          1.0328445879       -3.7072840304        0.5639128498
 H          0.9291064085       -2.6249914604        0.6681961798
 H          2.0098609478       -3.9776050909        0.9700683397
 C          1.0278496277       -4.0748736204       -0.9216449002
 H          2.0020734278       -3.8200121709       -1.3465551803
 H          0.8949234972       -5.1552065603       -1.0199233002
 C         -0.0268764819       -3.3616244599       -1.7655903502
 H          0.0333403578       -3.7536029699       -2.7844553402
 H          0.2141030586       -2.2946252300       -1.8198026402
 C         -1.4765414120       -3.5003287491       -1.2679831902
 H         -2.1417569820       -3.3976662588       -2.1298909101
 H         -1.6447764125       -4.4737294590       -0.8132099002
 H         -0.4712341628       -5.2365774097        0.7565664998
 H          0.3879301374       -4.9010004001        2.2443320498
 H         -2.0686807123       -4.1565761189        2.0885627598
 H         -0.8907716117       -3.0664859295        2.8129208998
 O         -1.8887569708       -1.3041945590        1.7714020599
 C         -2.2840896402       -0.0904512988        1.2330420799
 O         -2.3545674797        0.8296525013        2.0697142499
 O         -2.5240591408       -1.1186385786       -2.2212000001
 C         -2.9260119395        1.2810716216       -0.7956379601
 C         -1.8763343990        2.2959636411       -0.4131364301
 C         -2.1381733383        3.5815151912        0.0357115300
 C         -1.0925300179        4.4264054107        0.3749728499
 C          0.2212779119        4.0046027500        0.3023942799
 C          0.4923304212        2.7114508298       -0.1376837801
 C         -0.5503513592        1.8924541904       -0.5253623501
 H         -0.3303638797        0.9018640003       -0.8978979201
 N          1.8085531610        2.2130422392       -0.1433496102
 S          2.1163943601        0.5931280890       -0.4385134202
 O          1.9289174699        0.2655150191       -1.8377182102
 O          1.3804463797       -0.1953443006        0.5159308398
 C          3.8557984701        0.5548913781       -0.0513756402
 C          4.7850329901        0.6226106077       -1.0717472402
 C          6.1338954701        0.6307207270       -0.7521395403
 C          6.5284557201        0.5733028467        0.5758797197
 C          5.5843409801        0.5026815272        1.5897117897
 C          4.2345611201        0.4940260179        1.2761469698
 H          3.4639869701        0.4331843583        2.0274268498
 H          5.8942154101        0.4545459970        2.6211810597
 H          7.5782961701        0.5805971762        0.8228216897
 H          6.8698282101        0.6817660766       -1.5382932303
 H          4.4309124501        0.6564087279       -2.0895323902
 H          2.5118024913        2.8418606588       -0.4996478702
 H          1.0302601322        4.6557421996        0.5935018299
 H         -1.3090115274        5.4263472308        0.7195055600
 H         -3.1567985082        3.9187561617        0.1371778600
 H         -2.8056962397        1.0727684316       -1.8736567201
 C         -4.3559723693        1.7618272023       -0.6119560000
 C         -5.4487251198        0.8105773629       -0.2277084300
 C         -5.0097107392        1.8739424427        0.7314819600
 H         -5.6739471088        2.7078907230        0.9062113100
 H         -4.4292262293        1.5834190923        1.5921024100
 H         -6.4101579097        0.9100657734       -0.7090633400
 H         -5.1665067603       -0.2113036073       -0.0174512000
 H         -4.6214937289        2.5204054125       -1.3424257500
