  62
        -98.94456156
 C         -2.1166010448       -1.0538975746       -0.6192637233
 C         -1.5355412806        0.0516824625       -1.2862659933
 C         -2.1510575760        1.3620787559       -1.0216928758
 C         -3.1856128046        1.4509545326       -0.1687419272
 C         -3.8838220713        2.7239417582        0.2117835772
 C         -3.2632118320        3.3602359559        1.4623324787
 C         -1.7416740798        3.4991287690        1.4023811742
 H         -1.4269429435        4.0126096325        2.3142927206
 H         -1.2813131113        2.5081123378        1.4259511343
 C         -1.2182539722        4.2652209694        0.1795211773
 H         -2.0208593271        4.8577912074       -0.2624597070
 H         -0.4438673808        4.9602233037        0.5114137882
 C         -0.5864099219        3.3726320093       -0.8901329719
 H         -0.0156782915        4.0071067084       -1.5739629844
 H          0.1156258069        2.6883358896       -0.4071039030
 C         -1.5690385350        2.5505180707       -1.7346224206
 H         -2.3625626303        3.1994912244       -2.1119233123
 H         -1.0187231270        2.1476588933       -2.5899889776
 H         -3.5149436461        2.7424935305        2.3277283611
 H         -3.7134326997        4.3449144754        1.6053263222
 H         -3.8350476827        3.4202369512       -0.6234449965
 H         -4.9302375667        2.4902514700        0.4174239064
 O         -3.7066636742        0.3720956221        0.4711478377
 C         -3.1776108419       -0.8913441135        0.2750258259
 O         -3.7430958785       -1.7889191486        0.9339482004
 H          0.5464188562       -0.9792479140       -0.1596587934
 C          0.4767618278       -1.8377081248        0.4844448751
 C         -0.5618444242       -2.7407598143        0.3052768674
 C         -0.6355924685       -3.8499523316        1.1381364877
 C          0.3022565707       -4.0354645874        2.1392751920
 C          1.3080584363       -3.1086947650        2.3432144931
 C          1.3912008976       -1.9942448731        1.5133984628
 N          2.3969675773       -1.0373966768        1.6987410053
 S          2.1479742123        0.6076529348        1.4485192079
 O          2.8446671026        1.2476550991        2.5471811670
 O          0.7476532240        0.9225528083        1.3167261845
 C          3.0578156143        0.9342311624       -0.0490810241
 C          4.4070907758        1.2058987736        0.0869830994
 C          5.1671296410        1.4440560064       -1.0453200368
 C          4.5689221165        1.4059610841       -2.2961248974
 C          3.2160809784        1.1328466738       -2.4165115705
 C          2.4482265079        0.8925296895       -1.2862228827
 H          1.3942432471        0.6783619930       -1.3773158524
 H          2.7424242955        1.1008096486       -3.3846813481
 H          5.1582003551        1.5914637456       -3.1803811024
 H          6.2194451182        1.6584827702       -0.9502126375
 H          4.8268406274        1.2399394697        1.0787843821
 H          2.9723647117       -1.1893532484        2.5138999425
 H          2.0215799538       -3.2394624721        3.1428603382
 H          0.2370111391       -4.9003713687        2.7821287469
 H         -1.4444988067       -4.5548870883        1.0129489055
 C         -1.6028159209       -2.4803346542       -0.7539449858
 H         -2.4690556527       -3.1234290989       -0.5285509551
 C         -1.1338576535       -2.8284090800       -2.1592578555
 C          0.3032503766       -3.0235797601       -2.5272069221
 C         -0.6130642721       -4.2053164537       -2.4494779692
 H         -0.9161823424       -4.6907090449       -3.3647497921
 H         -0.4922851360       -4.8756582188       -1.6117009266
 H          0.6207567166       -2.6718684248       -3.4966632373
 H          1.0486234717       -2.9039438070       -1.7566573478
 H         -1.7663924547       -2.3780254695       -2.9171591430
 O         -0.5604362325       -0.0276223801       -2.0773409102
