  62
        -98.94564771
 C          1.0926380513        1.4499384347        0.7513516141
 C          1.9946419153        1.4474524985       -0.3394934305
 C          3.0032283777        0.3779924541       -0.3317181082
 C          2.9934061043       -0.5331372557        0.6582175696
 C          3.9386031037       -1.6946875505        0.7594040511
 C          3.3801659347       -2.9422859050        0.0614119280
 C          2.8457949687       -2.6815421993       -1.3463155660
 H          1.9734145157       -2.0268456596       -1.2815128786
 H          2.5021138112       -3.6379524435       -1.7453813959
 C          3.8707243693       -2.0706819342       -2.3119366726
 H          3.8050352920       -2.5921719723       -3.2691723079
 H          4.8799099234       -2.2251103599       -1.9279777014
 C          3.6630108310       -0.5832678062       -2.6011117948
 H          2.6252148623       -0.4062977437       -2.8951794638
 H          4.2946010557       -0.3103032708       -3.4508686075
 C          4.0060552877        0.3714580998       -1.4509761346
 H          4.0097979257        1.3883129161       -1.8544071714
 H          5.0059090397        0.1484533729       -1.0728622673
 H          2.5617562262       -3.3351746669        0.6658945465
 H          4.1697230722       -3.6947316309        0.0192633426
 H          4.8926105994       -1.4139678863        0.3167253263
 H          4.0926423525       -1.9192351955        1.8161241145
 O          2.0895373544       -0.5166069420        1.6717737239
 C          1.1207022450        0.4706694057        1.7445176546
 O          0.3556645069        0.3706318150        2.7248000044
 H         -1.3117800734        0.2832776763        0.2684536698
 C         -1.5309135204        1.0470897002       -0.4643868628
 C         -0.9423098292        2.2994595741       -0.3330520643
 C         -1.2332712981        3.2741931242       -1.2770940226
 C         -2.0828887628        2.9895759425       -2.3327392326
 C         -2.6721161945        1.7449268148       -2.4553281178
 C         -2.3961309763        0.7651636439       -1.5075289107
 N         -2.9664399601       -0.5148019247       -1.5939655922
 S         -3.5277419690       -1.2444871759       -0.1937020055
 O         -4.4987810339       -2.2127036107       -0.6603232268
 O         -4.0164138625       -0.2656368544        0.7492829924
 C         -2.1352959080       -2.1263636209        0.4759077503
 C         -1.8134792420       -1.9755652130        1.8094254250
 C         -0.7730257777       -2.7223677886        2.3378962424
 C         -0.0808587662       -3.6069636878        1.5269459226
 C         -0.4106774624       -3.7421086773        0.1862733913
 C         -1.4489482593       -2.9970625495       -0.3477402526
 H         -1.7391921101       -3.0796089590       -1.3819978922
 H          0.1366056107       -4.4271329033       -0.4413586778
 H          0.7185634434       -4.1970131136        1.9479919335
 H         -0.5040130603       -2.5981402713        3.3743211031
 H         -2.3678863979       -1.2695456126        2.4073099111
 H         -3.6112496672       -0.6402482086       -2.3611559557
 H         -3.3387786122        1.5281321929       -3.2763062106
 H         -2.2944769092        3.7518071790       -3.0673568309
 H         -0.7878804655        4.2516779971       -1.1945523219
 C         -0.0021581435        2.5004511712        0.8311653358
 H         -0.5630489491        2.2873562846        1.7530796918
 C          0.5797417073        3.8939569703        0.9244642814
 C         -0.2286211225        5.0005006255        1.5302936633
 C          0.9462618613        4.4379810738        2.2711255635
 H          1.8382951924        5.0398367422        2.3588074799
 H          0.7578195841        3.8096366485        3.1297430757
 H         -1.2177978212        4.7573762008        1.8887091230
 H         -0.1429302414        5.9920523094        1.1122510212
 H          1.2349504194        4.1322282848        0.0952619692
 O          1.9695789604        2.2949161595       -1.2696659804
