  62
        -98.93697718
 C         -2.4477539932       -0.2501435239       -0.0497637576
 C         -2.3365325046        0.8156050958        0.8695072533
 C         -1.8223714396        2.0935518038        0.3471159450
 C         -1.4869792233        2.1759972274       -0.9530493288
 C         -0.9097168225        3.3523624624       -1.6981810300
 C          0.2751169307        4.0539172751       -1.0148161400
 C         -0.0605379976        5.4618185568       -0.5201468428
 H          0.8664322195        6.0336008955       -0.4396383809
 H         -0.6839252690        5.9522513874       -1.2705865138
 C         -0.7599096839        5.5220412731        0.8365182131
 H         -0.0460580466        5.2606142267        1.6207091538
 H         -1.0655466163        6.5573883869        1.0046843809
 C         -1.9865129681        4.6192378177        0.9858533448
 H         -2.6096711886        5.0357451530        1.7801515916
 H         -2.5837441578        4.6268092948        0.0753280642
 C         -1.6459049363        3.1746570989        1.3788988271
 H         -2.2824703296        2.8623493983        2.2133622106
 H         -0.6182946071        3.1172039724        1.7540396166
 H          0.6442582195        3.4344324360       -0.1966932961
 H          1.0836627647        4.1322978288       -1.7436707588
 H         -0.5967701720        2.9495859114       -2.6638672778
 H         -1.7062679726        4.0729067408       -1.8978404615
 O         -1.6596344976        1.1354607789       -1.8173061860
 C         -2.0877546145       -0.1069213301       -1.3889925997
 O         -2.1254542285       -0.9764264391       -2.2813741353
 O         -2.6447072440        0.7011953786        2.0891953635
 C         -2.8104566469       -1.6319617798        0.4637773719
 C         -1.6139498102       -2.5347909281        0.2757578047
 C         -1.6926000258       -3.8381784772       -0.1967959171
 C         -0.5399953116       -4.5801899203       -0.3942291207
 C          0.7075962499       -4.0375922282       -0.1470206453
 C          0.7945328746       -2.7401169399        0.3453367891
 C         -0.3612436168       -2.0161283631        0.5779875528
 H         -0.2759295079       -1.0104169822        0.9644729855
 N          2.0357823023       -2.1361594244        0.6197256285
 S          2.1812957821       -0.4946046995        0.2277951300
 O          1.7054210108        0.2958087683        1.3366825346
 O          1.5784143309       -0.2305381710       -1.0584111070
 C          3.9571221024       -0.3571926328        0.1220488044
 C          4.5692886495       -0.4223709710       -1.1152401114
 C          5.9523029508       -0.3563469475       -1.1833565458
 C          6.6954091022       -0.2310201088       -0.0191896366
 C          6.0667401404       -0.1664385346        1.2155850136
 C          4.6843794276       -0.2305178060        1.2906143334
 H          4.1500908255       -0.1760226782        2.2247362181
 H          6.6472809148       -0.0665787171        2.1183912645
 H          7.7712548138       -0.1809140805       -0.0750714034
 H          6.4429594250       -0.4032434001       -2.1421433329
 H          3.9485281734       -0.5126318515       -1.9925006344
 H          2.8145813708       -2.6657556182        0.2505754386
 H          1.6048177460       -4.6080137936       -0.3336581166
 H         -0.6144851877       -5.5898198270       -0.7689886280
 H         -2.6543849776       -4.2674523571       -0.4255825380
 H         -2.9850926205       -1.5082818502        1.5434970449
 C         -4.0750945786       -2.1540416629       -0.1823317022
 C         -4.9636474146       -3.1072511932        0.5584288380
 C         -5.3998617560       -1.6903514546        0.3426012074
 H         -6.1925842540       -1.4934148145       -0.3631676161
 H         -5.3881039304       -1.0153731294        1.1859980256
 H         -5.4625935251       -3.8852741239        0.0007276383
 H         -4.6646416314       -3.3975923714        1.5542442943
 H         -3.9738527247       -2.2706502182       -1.2552907119
