  62
        -98.94364007
 C          1.5523492881        1.4467758309        0.0469305661
 C          2.0772869268        0.5204508871        0.9801350491
 C          3.1199376097       -0.3772529219        0.4712703759
 C          3.5222049714       -0.2758243242       -0.8085821976
 C          4.5772833598       -1.1196493633       -1.4713482782
 C          4.0586400398       -2.4674629485       -1.9923920281
 C          3.7369691496       -3.5048250051       -0.9152669354
 H          4.5947233768       -3.6142874550       -0.2510204575
 H          3.5956717168       -4.4604156819       -1.4242942181
 C          2.4798718620       -3.1948271032       -0.0897151719
 H          1.8694000582       -4.0966484603       -0.0041774406
 H          1.8759844816       -2.4498849398       -0.6140333351
 C          2.7596144154       -2.6965582239        1.3283242593
 H          3.2395705000       -3.4888078701        1.9066439139
 H          1.8040733649       -2.4583789362        1.8014575616
 C          3.6381965793       -1.4407670927        1.3914000260
 H          4.6712912118       -1.6875827077        1.1488603455
 H          3.6005738157       -1.0470044851        2.4098206723
 H          4.8295314102       -2.8821655358       -2.6460474871
 H          3.1699457120       -2.2874448322       -2.6024417600
 H          5.4019677581       -1.2886609917       -0.7785126878
 H          4.9494795336       -0.5431336127       -2.3209891955
 O          3.0051394589        0.6411825697       -1.6700660534
 C          1.9919608473        1.5064302439       -1.2753188652
 O          1.5795936045        2.2586395969       -2.1783674782
 O          1.6875913802        0.4442421487        2.1747377438
 C          0.4450534069        2.3766731140        0.4973876485
 C         -0.8376403705        2.1245784473       -0.2576848350
 C         -1.7867768430        3.1202746503       -0.4602272862
 C         -2.9828735561        2.8402512632       -1.0987979157
 C         -3.2627840774        1.5631454444       -1.5509750953
 C         -2.3199655024        0.5640831660       -1.3595459618
 C         -1.1272110977        0.8441651735       -0.7106147042
 H         -0.4059916810        0.0505968310       -0.5549462328
 N         -2.6193335927       -0.7549422672       -1.7865522228
 S         -3.6071827656       -1.5862683050       -0.7140700819
 O         -3.6818422434       -2.9431047089       -1.2051413016
 O         -4.8524078561       -0.8727345638       -0.5999792421
 C         -2.7157282609       -1.5364770810        0.8290513717
 C         -1.8693940591       -2.5803674086        1.1448774585
 C         -1.0935890260       -2.4916343566        2.2893216648
 C         -1.1581689938       -1.3553060698        3.0809851350
 C         -2.0115736924       -0.3150676640        2.7482408968
 C         -2.8008439019       -0.4025279021        1.6127168819
 H         -3.4789265479        0.3847329508        1.3249202601
 H         -2.0553325222        0.5683639715        3.3645621336
 H         -0.5329903204       -1.2739857151        3.9558429187
 H         -0.4354015814       -3.3036633778        2.5555001116
 H         -1.8414883698       -3.4419257698        0.4965183710
 H         -1.7910418188       -1.3106283619       -1.9508114385
 H         -4.1948333129        1.3204824039       -2.0342299153
 H         -3.7071342749        3.6268614852       -1.2452934498
 H         -1.5886422559        4.1211479581       -0.1126542200
 H          0.2637027889        2.1156355587        1.5520307000
 C          0.8973594756        3.8218882729        0.4273924705
 C          0.4475241773        4.8138880048        1.4572095621
 C          1.8633847056        4.3244718055        1.4571896489
 H          2.6467622357        4.9984587352        1.1447450187
 H          2.1659320884        3.6329976101        2.2301049630
 H          0.2588554907        5.8302519024        1.1454511970
 H         -0.2055911894        4.4627576298        2.2417998130
 H          1.0307263455        4.1653400098       -0.5922585000
