  62
        -98.94080869
 C          2.5895610296        1.3267652199        0.2136653380
 C          2.3972168593        0.2301279992       -0.6647215610
 C          3.5100720693       -0.7320500210       -0.7432006503
 C          4.6221763094       -0.5268698404       -0.0164022907
 C          5.8032748994       -1.4511003604        0.0322422799
 C          5.6582069396       -2.4764007994        1.1654546608
 C          4.3031166595       -3.1838349993        1.1896291517
 H          4.3274753496       -3.9057785085        2.0087402424
 H          3.5228686296       -2.4565445690        1.4264725312
 C          3.9399586292       -3.9051210604       -0.1158314576
 H          4.8368488291       -4.0573123710       -0.7174767076
 H          3.5415744592       -4.8921549302        0.1281602434
 C          2.8797083491       -3.1950385911       -0.9600686280
 H          2.5434268689       -3.8874086518       -1.7368569473
 H          2.0107264892       -2.9583970605       -0.3396899880
 C          3.3360021890       -1.9092596118       -1.6611167892
 H          2.5527285189       -1.6249983324       -2.3703830594
 H          4.2535315989       -2.1012791923       -2.2214254593
 H          6.4546099295       -3.2159782095        1.0655733213
 H          5.7910094898       -1.9598155285        2.1187607803
 H          5.8987350092       -1.9613899513       -0.9241720397
 H          6.6999059895       -0.8540980303        0.2070897092
 O          4.7750847296        0.5398617804        0.8082058183
 C          3.7626040897        1.4709398006        0.9624212676
 O          4.0235457699        2.3724561813        1.7833843068
 O          1.3667100092        0.0478477586       -1.3640204906
 C          1.5206736497        2.3819088602        0.4554961672
 C          0.2052468497        1.7060863706        0.7490623981
 C         -0.0242094301        1.1810871317        2.0170421586
 C         -1.1994628401        0.5105255420        2.2997557294
 C         -2.1629095203        0.3381013612        1.3210756998
 C         -1.9321501605        0.8383073100        0.0469738593
 C         -0.7636201205        1.5378504697       -0.2262369216
 H         -0.5877802607        1.9128905188       -1.2223167419
 N         -2.8936279107        0.6582813992       -0.9598906204
 S         -3.6755875808       -0.8184355309       -1.0974148289
 O         -2.8682838908       -1.9168241105       -0.6206822080
 O         -4.1073372911       -0.8864323121       -2.4768635687
 C         -5.1103008906       -0.6189570899       -0.0588592188
 C         -5.9125517506        0.4866240000       -0.2633733296
 C         -7.0371962304        0.6538897107        0.5283912504
 C         -7.3415736203       -0.2834724384        1.5042986913
 C         -6.5288414503       -1.3901932382        1.6949520522
 C         -5.4017259004       -1.5626258390        0.9063376321
 H         -4.7385782005       -2.4054280989        1.0222713528
 H         -6.7672236102       -2.1186423975        2.4533213829
 H         -8.2173809601       -0.1508906678        2.1196707414
 H         -7.6717841904        1.5131851006        0.3828127698
 H         -5.6428118407        1.1898801593       -1.0333454503
 H         -2.5931423708        0.9903421284       -1.8650019407
 H         -3.0733436603       -0.1994745986        1.5297480504
 H         -1.3665699399        0.1125072429        3.2892545298
 H          0.7374544401        1.2966975423        2.7763423184
 H          1.8445254799        2.9044066710        1.3695506567
 C          1.4132271695        3.4422810792       -0.6305970537
 C          2.6508577494        4.0122067186       -1.2554272344
 C          1.7129990392        3.1795982379       -2.0743376535
 H          1.1059213191        3.6763432473       -2.8176791938
 H          2.0183637291        2.1850071277       -2.3578153327
 H          2.6947310495        5.0748988484       -1.4398902054
 H          3.5966504395        3.5788798788       -0.9635575942
 H          0.6107000796        4.1439525995       -0.4233041142
