  62
        -98.93615948
 C          2.4868444791        0.9384257234        0.5834315963
 C          2.8401022544       -0.3056026372        1.1677509666
 C          4.2268318302       -0.7440749083        0.9826734838
 C          5.0874176573        0.0422785528        0.3116531889
 C          6.5412656482       -0.2494717985        0.0563451921
 C          6.7916378596       -1.1462664062       -1.1638046958
 C          6.4107843143       -2.6158387668       -0.9800788815
 H          6.8377250746       -3.1649801574       -1.8216078946
 H          6.8755476935       -2.9995781383       -0.0713984647
 C          4.8987733970       -2.8782187792       -0.9370216781
 H          4.3658508526       -2.0144673844       -1.3415349851
 H          4.6581327109       -3.7300430656       -1.5770899919
 C          4.3480303738       -3.1890842860        0.4549046845
 H          4.7738046015       -4.1275517186        0.8170716692
 H          3.2655400716       -3.3185927662        0.3739969603
 C          4.6156767159       -2.0965258561        1.4983886145
 H          5.6651360307       -2.1047820597        1.7922668892
 H          4.0025285667       -2.3047838901        2.3787256251
 H          7.8588461964       -1.0954311107       -1.3915035992
 H          6.2492446015       -0.7333811026       -2.0173624049
 H          7.0252721829        0.7136700320       -0.1187629322
 H          6.9839848201       -0.7056236182        0.9421955188
 O          4.7206770481        1.2401128452       -0.2114906718
 C          3.4133609236        1.7094981182       -0.1205199369
 O          3.2390773681        2.7990831907       -0.6944471176
 O          2.0298063400       -1.0143484038        1.8247329262
 C          1.0453237808        1.3787639104        0.7569163381
 C          0.1769522311        0.8900815324       -0.3741857336
 C          0.5614817931        1.0361445821       -1.7035227121
 C         -0.2665596863        0.6022795151       -2.7227013372
 C         -1.4961601119        0.0339170357       -2.4395841420
 C         -1.8859345756       -0.1234232335       -1.1147359013
 C         -1.0432854544        0.2943465940       -0.0936973089
 H         -1.3524468000        0.1508360730        0.9311802818
 N         -3.1181595661       -0.7108821102       -0.7898671359
 S         -3.9392581895       -0.1169956629        0.5627465291
 O         -3.8610894038        1.3258152829        0.5889013507
 O         -3.4599215916       -0.8031702958        1.7359989437
 C         -5.6018935806       -0.6447535203        0.1955814575
 C         -6.4889777190        0.2502718638       -0.3719697518
 C         -7.7707488445       -0.1798278854       -0.6778306763
 C         -8.1401220060       -1.4905173980       -0.4154717175
 C         -7.2385822344       -2.3770397098        0.1551666673
 C         -5.9560967250       -1.9534603123        0.4651483250
 H         -5.2249280839       -2.6025425558        0.9183804535
 H         -7.5303083307       -3.3943850677        0.3603967972
 H         -9.1380397957       -1.8227383496       -0.6543106077
 H         -8.4750752974        0.5077307592       -1.1176733197
 H         -6.1599584006        1.2614772026       -0.5500291572
 H         -3.7284315129       -0.8184185700       -1.5885273699
 H         -2.1456935676       -0.2919131771       -3.2377297360
 H          0.0432066672        0.7215511245       -3.7501437978
 H          1.5088804699        1.5036127926       -1.9270647664
 H          0.7026447522        0.8652420078        1.6706981937
 C          0.8871961461        2.8734982915        0.9992131268
 C          0.3169820515        3.8208875471       -0.0085656249
 C         -0.4771870506        3.4621462675        1.2094530880
 H         -0.6032059319        4.2047988088        1.9830841416
 H         -1.3331627769        2.8141050200        1.0813092019
 H          0.7581019731        4.8035179975       -0.0751267241
 H         -0.0010674364        3.4231397649       -0.9592068076
 H          1.6841691552        3.2646991058        1.6241548874
