  62
        -98.93665573
 C          1.7555413851       -0.7943949822        0.1208116533
 C          2.8771867558       -0.8789920830       -0.7433883012
 C          4.1029040675       -0.1702629441       -0.3348030080
 C          4.1070740635        0.4978442311        0.8321946623
 C          5.2200618559        1.2944849678        1.4643378631
 C          6.6222880562        0.6674659371        1.4278376040
 C          7.5845402782        1.3833535879        0.4783876072
 H          7.4149887649        2.4592777905        0.5575323602
 H          8.6081723488        1.1903551677        0.8071765782
 C          7.4835560225        0.9628393653       -0.9868126419
 H          8.1148122688        1.6387417966       -1.5685254881
 H          7.8925185364       -0.0432258636       -1.1028178380
 C          6.0720924643        0.9807001996       -1.5772434519
 H          6.1654194505        1.0703515854       -2.6616722297
 H          5.5247262082        1.8575487556       -1.2328850592
 C          5.2649905978       -0.2923693381       -1.2821790906
 H          5.9318001051       -1.0813392150       -0.9222791868
 H          4.8254672866       -0.6714512723       -2.2099740352
 H          6.5498983557       -0.3877898051        1.1691620580
 H          7.0385960098        0.7251800130        2.4349003718
 H          5.2438901244        2.2840495312        1.0008704775
 H          4.9076334852        1.4447016769        2.5003397655
 O          3.0066669351        0.5554081782        1.6327089931
 C          1.8141049735       -0.0691154637        1.3095143763
 O          0.9199432120        0.1055053041        2.1628256249
 O          2.8566633543       -1.5305363997       -1.8219767451
 C          0.5022731635       -1.5347145875       -0.3158306822
 C         -0.5158039093       -0.5977821649       -0.9201873894
 C         -0.8829980095       -0.7072283560       -2.2560513760
 C         -1.8391495822        0.1350072994       -2.7975533911
 C         -2.4491408055        1.1008980714       -2.0178267150
 C         -2.0830108090        1.2214565425       -0.6834961549
 C         -1.1294929472        0.3732722117       -0.1413418103
 H         -0.8446268896        0.4784631774        0.8949037792
 N         -2.7137970961        2.1916149147        0.1246384308
 S         -4.3788546311        2.0276030832        0.2489717911
 O         -4.9969132977        2.5639327832       -0.9377616325
 O         -4.7453425168        2.6607322980        1.4958402944
 C         -4.6407380795        0.2651855008        0.3287761384
 C         -5.1144172101       -0.4106156404       -0.7771190248
 C         -5.2308320344       -1.7900639894       -0.7185784761
 C         -4.8692131287       -2.4657041005        0.4362486621
 C         -4.3975124750       -1.7715656698        1.5398688351
 C         -4.2764729942       -0.3928967714        1.4865464412
 H         -3.9149670595        0.1793421033        2.3262921003
 H         -4.1185500701       -2.2973666906        2.4391560520
 H         -4.9561027758       -3.5400712713        0.4775706597
 H         -5.5977354202       -2.3331646731       -1.5743519268
 H         -5.3845451424        0.1536446907       -1.6543620538
 H         -2.3044367648        2.2525839390        1.0465960984
 H         -3.2016414557        1.7618717718       -2.4168043496
 H         -2.1128717560        0.0379536084       -3.8369490346
 H         -0.4044978828       -1.4529410553       -2.8738341204
 H          0.8380573124       -2.2173538064       -1.1074634755
 C         -0.1275083502       -2.3567285459        0.7927516014
 C         -1.0581734709       -3.4723515448        0.4274086321
 C          0.2986036625       -3.7797968039        0.9849681322
 H          0.3717953528       -4.1629547589        1.9917294905
 H          1.0504527214       -4.1711472847        0.3151561811
 H         -1.9220931142       -3.6443590012        1.0497729389
 H         -1.2281891225       -3.6560528992       -0.6223274736
 H         -0.3523204134       -1.7817687275        1.6813001812
