  62
        -98.94855159
 C         -1.5838297088       -1.0707487499        0.8580538895
 C         -2.5492094835       -0.4886799070        0.0016034153
 C         -2.9431653351        0.8876653514        0.3247317126
 C         -2.3666387636        1.5258904929        1.3584265796
 C         -2.6376637084        2.9413158620        1.7895199548
 C         -1.8482144219        3.9836635186        0.9850954686
 C         -2.3599232367        4.2326911942       -0.4344784233
 H         -3.4359017655        4.4114091314       -0.4096301558
 H         -1.8836174050        5.1492275340       -0.7887930359
 C         -2.0424872574        3.1038271844       -1.4254102044
 H         -1.6697827977        3.5355984158       -2.3581041091
 H         -1.2364159172        2.4835177019       -1.0253969395
 C         -3.2344792724        2.2159267586       -1.7841674218
 H         -3.9748429422        2.8024973797       -2.3340490167
 H         -2.8783822739        1.4181247238       -2.4413070428
 C         -3.9273604541        1.5634791692       -0.5817225415
 H         -4.5029600431        2.3068918925       -0.0304629211
 H         -4.6107582620        0.7978133188       -0.9581027760
 H         -0.8023194309        3.6692231347        0.9362125998
 H         -1.8913705114        4.9259709381        1.5368657967
 H         -3.7049575568        3.1534603488        1.7181456079
 H         -2.3369716011        3.0126269334        2.8370985167
 O         -1.4473664011        0.9311529177        2.1621881629
 C         -1.0107723263       -0.3588837643        1.9110108942
 O         -0.1237227013       -0.7588093506        2.6945799682
 H          0.9560499130       -0.7876656892        0.0599164186
 C          0.7104963874       -1.3408975643       -0.8330133339
 C         -0.2792498124       -2.3151997972       -0.7686546670
 C         -0.5773086506       -3.0388376291       -1.9136711414
 C          0.0723980593       -2.7511486977       -3.1031522501
 C          1.0040627113       -1.7327847808       -3.1786182080
 C          1.3244774181       -1.0156274690       -2.0289342855
 N          2.2670391748        0.0188467983       -2.0637711756
 S          2.2804079963        1.2690757625       -0.9516266007
 O          0.9642520830        1.5873831162       -0.4527956324
 O          2.9726102144        2.3380773149       -1.6423682073
 C          3.3422535201        0.6524187277        0.3368813480
 C          4.6595996789        0.4057033792       -0.0015230140
 C          5.5234290484       -0.0792133530        0.9655558419
 C          5.0579566620       -0.3104600891        2.2519658854
 C          3.7354635235       -0.0550993122        2.5768405765
 C          2.8662810677        0.4336033291        1.6127018988
 H          1.8297260991        0.6282993144        1.8434895395
 H          3.3626925071       -0.2371135118        3.5722440092
 H          5.7283106088       -0.6906090684        3.0066513954
 H          6.5534275967       -0.2768809284        0.7160000501
 H          4.9806266903        0.6079820648       -1.0097039372
 H          2.5577127792        0.3129019824       -2.9836409588
 H          1.4771312990       -1.4864497107       -4.1169344541
 H         -0.1713367895       -3.3128583974       -3.9923427191
 H         -1.3310120159       -3.8081794809       -1.8836478919
 C         -1.0127301194       -2.4463546495        0.5454242180
 H         -0.2775507832       -2.6601869814        1.3342444272
 C         -2.0799580767       -3.5170924745        0.5602815678
 C         -1.6950041218       -4.9488167912        0.7783571580
 C         -2.4132980928       -4.1934325987        1.8547912416
 H         -3.4454547262       -4.4367084354        2.0573553743
 H         -1.8562466337       -3.8936027014        2.7306158345
 H         -2.2351867905       -5.7153746115        0.2438667368
 H         -0.6481739304       -5.1673109580        0.9255102252
 H         -2.8987085416       -3.3026237883       -0.1157521262
 O         -3.0611116691       -1.0806725341       -0.9847390609
