  62
        -98.93916720
 C          2.1127954809        1.0257935589       -0.0972230407
 C          2.9154597710        0.5383054488        0.9654595092
 C          3.6437694008       -0.7212831413        0.7388425291
 C          3.5100194304       -1.3523947314       -0.4423183209
 C          4.0707621501       -2.6659364415       -0.9466442310
 C          5.1648072101       -3.3951848416       -0.1719011312
 C          6.5248116603       -2.6968659918       -0.1826213615
 H          7.1909794503       -3.2327828819        0.4966820684
 H          6.9438397700       -2.7733896520       -1.1891105816
 C          6.5097770506       -1.2183289618        0.1970078584
 H          5.9020771905       -0.6622281718       -0.5196383115
 H          7.5326718906       -0.8414384620        0.1133441682
 C          6.0168372410       -0.9112191117        1.6092132185
 H          6.1931164712        0.1514020583        1.7962896984
 H          6.6017551910       -1.4799202417        2.3346055584
 C          4.5252001810       -1.1846507814        1.8634063689
 H          4.3479066608       -2.2348406814        2.0824921390
 H          4.2218599213       -0.6110771813        2.7440604389
 H          5.2900022599       -4.3693864617       -0.6522568412
 H          4.8380079203       -3.5872604515        0.8458195189
 H          4.4208776299       -2.4717169616       -1.9656685910
 H          3.2068495200       -3.3335319013       -1.0419818707
 O          2.7232982803       -0.8475223613       -1.4363400807
 C          2.0095419905        0.3312833689       -1.3005753506
 O          1.3527816603        0.6289500789       -2.3196156505
 O          3.0172660514        1.1344717788        2.0705306791
 C          1.3336355012        2.3066097590        0.1604327794
 C         -0.0955287288        1.9470056293        0.4882408798
 C         -0.5545578185        1.9904609194        1.7999766399
 C         -1.8424338585        1.5908502296        2.1105229902
 C         -2.6937098188        1.1279448797        1.1227930504
 C         -2.2395901491        1.0699393696       -0.1878876297
 C         -0.9580241391        1.4948747794       -0.5007320700
 H         -0.6076198594        1.4227680893       -1.5195479201
 N         -3.0879922394        0.5530591797       -1.1936133395
 S         -3.4535784097       -1.0832218602       -1.0158572393
 O         -2.3938898696       -1.7909308504       -0.3315978395
 O         -3.7913472300       -1.5527489802       -2.3421092492
 C         -4.9252580494       -1.0726460899       -0.0129839090
 C         -6.0509003394       -0.4493788498       -0.5156882088
 C         -7.2035008993       -0.4289404996        0.2532900615
 C         -7.2113927191       -1.0301855695        1.5033070215
 C         -6.0740125891       -1.6547104297        1.9921017213
 C         -4.9172681393       -1.6779489199        1.2283115210
 H         -4.0067371093       -2.1454893200        1.5677588808
 H         -6.0816605189       -2.1217264296        2.9638555813
 H         -8.1093945390       -1.0124866493        2.1003777417
 H         -8.0900374293        0.0552116006       -0.1233430583
 H         -6.0015287296        0.0001961502       -1.4932571588
 H         -2.7109573496        0.6984056696       -2.1210221096
 H         -3.6946672788        0.8049492799        1.3584008406
 H         -2.1847687683        1.6326524797        3.1331993903
 H          0.1170579817        2.3193967893        2.5797350897
 H          1.7857912714        2.7413474590        1.0616609493
 C          1.4352018511        3.3164456890       -0.9639561506
 C          1.0849587914        4.7467030890       -0.6857453706
 C          2.5129026613        4.3561847688       -0.9176700909
 H          2.9862022611        4.6472756287       -1.8434059410
 H          3.1830771714        4.3439250887       -0.0705541911
 H          0.5746541313        5.3097128691       -1.4519473705
 H          0.7860597516        4.9997721891        0.3201230694
 H          1.1804622008        2.9137207190       -1.9355055206
