  62
        -98.93962913
 C          2.2776909596        0.9086465207        0.6484753000
 C          3.4190162596        0.8754501309       -0.1901316200
 C          4.4015578198       -0.1802998389        0.1019244900
 C          4.1751113300       -1.0407099189        1.1098843700
 C          5.0602645803       -2.1985006087        1.4680563500
 C          4.6368424305       -3.4733563588        0.7249841000
 C          4.4386095604       -3.2764153089       -0.7780910700
 H          4.1721233106       -4.2479216090       -1.2001321299
 H          3.5861335402       -2.6123111691       -0.9404362099
 C          5.6649640402       -2.7178126987       -1.5133097100
 H          5.8102350803       -3.2875010187       -2.4335209900
 H          6.5575026903       -2.8559921885       -0.9021145501
 C          5.5478758499       -1.2461814687       -1.9138335101
 H          6.3608871199       -1.0170737386       -2.6077829801
 H          4.6070990499       -1.0851845789       -2.4461407100
 C          5.6292694998       -0.2344949987       -0.7639826301
 H          6.5167022499       -0.4333413385       -0.1601351001
 H          5.7282710996        0.7614332414       -1.2050573301
 H          3.6938004206       -3.8246404090        1.1506557701
 H          5.3941924407       -4.2403706887        0.8969680000
 H          6.0912367202       -1.9491612485        1.2245922599
 H          4.9811440604       -2.3716224787        2.5426116900
 O          3.0716311801       -0.9764238391        1.8992399100
 C          2.1050649899       -0.0090462593        1.6897729001
 O          1.1532060399       -0.0598488295        2.4966038401
 H         -1.4103465404        1.1418727000        0.7262253302
 C         -1.0875881705        1.1565450900       -0.3043697898
 C          0.2137810694        1.5242451603       -0.6163346399
 C          0.6131999294        1.5141279103       -1.9489224999
 C         -0.2741955406        1.1377052301       -2.9400810998
 C         -1.5695211505        0.7669613899       -2.6255730998
 C         -1.9805918204        0.7789265498       -1.2975512897
 N         -3.3068678104        0.4524063396       -0.9626420697
 S         -3.6205900601       -0.3617090905        0.4826369304
 O         -3.5502738603        0.5799596796        1.5711934803
 O         -2.7863029599       -1.5386920803        0.5840863303
 C         -5.3210188100       -0.8250461308        0.2089132005
 C         -5.6337438098       -2.1288486609       -0.1248012995
 C         -6.9593855798       -2.4620358611       -0.3566955994
 C         -7.9435152999       -1.4906034413       -0.2543848894
 C         -7.6141944702       -0.1856813612        0.0819939206
 C         -6.2914689102        0.1536035790        0.3168048805
 H         -5.9889079004        1.1509950891        0.5898143504
 H         -8.3822524903        0.5664102186        0.1630903206
 H         -8.9740196499       -1.7526316215       -0.4351319093
 H         -7.2184112796       -3.4761819912       -0.6150042594
 H         -4.8355967997       -2.8512003407       -0.1861504595
 H         -3.8021206503        0.0199969595       -1.7314299196
 H         -2.2597186905        0.4728831097       -3.4018553397
 H          0.0480215894        1.1282014802       -3.9704847899
 H          1.6282125293        1.7845538705       -2.1950302899
 C          1.1587686394        1.9271822705        0.4911623601
 H          0.5938421995        1.8901842804        1.4331905501
 C          1.6594995491        3.3448708706        0.2911164100
 C          0.7331524289        4.4836799104        0.5883525600
 C          1.9002164990        4.2112161307        1.4884970000
 H          2.7376658489        4.8923418108        1.4711824199
 H          1.7050318992        3.7836097106        2.4617359200
 H          0.7670612187        5.3546500604       -0.0477473900
 H         -0.2545541710        4.2407386202        0.9518124001
 H          2.3394819291        3.4498199007       -0.5432741900
 O          3.6335894594        1.6753387309       -1.1385529700
