  62
        -98.93818155
 C         -1.6411225165       -1.4509713055        0.2738619039
 C         -1.8093940388       -0.2177484994        0.9532879176
 C         -3.0920922295        0.4853454270        0.7744003778
 C         -4.0384562514       -0.0688608602       -0.0060680964
 C         -5.4579511874        0.3559925546       -0.3214253108
 C         -5.9689651442        1.7338864986        0.0887564538
 C         -5.3604215636        2.8937608973       -0.6996330909
 H         -5.7601866252        2.8665887988       -1.7164382407
 H         -5.6837315922        3.8304415870       -0.2406783141
 C         -3.8378980936        2.8875458581       -0.8050473415
 H         -3.5088610566        1.9798633434       -1.3147891610
 H         -3.5425699644        3.7338105054       -1.4310276109
 C         -3.0905414107        3.0099662640        0.5204642408
 H         -3.4208976989        3.9070260020        1.0480648581
 H         -2.0304955427        3.1309889383        0.2836222276
 C         -3.2231596872        1.8095510693        1.4719317012
 H         -4.1518793096        1.8573395504        2.0358552166
 H         -2.4025250189        1.8551510492        2.1945015282
 H         -5.8354579851        1.8801275327        1.1566669413
 H         -7.0463401037        1.7367127035       -0.0975166512
 H         -5.5761603166        0.2361088308       -1.4031510031
 H         -6.0975230381       -0.4035166554        0.1417191443
 O         -3.8255473690       -1.2492731701       -0.6546112112
 C         -2.6370272209       -1.9559339379       -0.5604806669
 O         -2.6209948690       -2.9853691452       -1.2632211821
 O         -0.9219770114        0.2728844660        1.7017578596
 C         -0.3251886470       -2.1740743765        0.4974031944
 C          0.6942704063       -1.8325556950       -0.5634062488
 C          0.4183984326       -1.9938555051       -1.9169541359
 C          1.3756382481       -1.6824590966       -2.8650220797
 C          2.6157999364       -1.1986427376       -2.4859253140
 C          2.9045297605       -1.0413801286       -1.1352674877
 C          1.9442885913       -1.3653248954       -0.1860653093
 H          2.1858929437       -1.2508452037        0.8590231240
 N          4.1645977300       -0.5842277054       -0.7249129845
 S          4.3515718284        0.4504085045        0.5748682852
 O          5.7198821108        0.9058732730        0.4655051694
 O          4.0036665789       -0.2254328460        1.7984448498
 C          3.2426244693        1.8096139750        0.2579409415
 C          3.6807910518        2.8139869009       -0.5850326542
 C          2.8281504954        3.8637984837       -0.8818105265
 C          1.5520956184        3.8913160379       -0.3377970120
 C          1.1301423734        2.8777214141        0.5068072188
 C          1.9783949645        1.8243441685        0.8091555337
 H          1.6529881697        1.0316904297        1.4625269465
 H          0.1416493270        2.8800374362        0.9382897319
 H          0.8855032386        4.7073120567       -0.5694217485
 H          3.1577901764        4.6559530940       -1.5346713563
 H          4.6846002448        2.7631024613       -0.9748283913
 H          4.7891525867       -0.3381344424       -1.4787148772
 H          3.3589626593       -0.9530253039       -3.2290821420
 H          1.1518102310       -1.8128632345       -3.9130902986
 H         -0.5489408250       -2.3683010598       -2.2156246788
 H          0.0574560338       -1.7907176951        1.4538603069
 C         -0.4635657269       -3.6798791219        0.6138077629
 C          0.6052849375       -4.4521110289        1.3246736477
 C         -0.7471280941       -4.2919914270        1.9509558245
 H         -1.4024185244       -5.1488208821        1.9958584480
 H         -0.8408910794       -3.6266127711        2.7971216171
 H          0.8821402365       -5.4214147579        0.9394550577
 H          1.4297001895       -3.8964074741        1.7466856993
 H         -0.9257750216       -4.1373753092       -0.2509973273
