  62
        -98.93945489
 C         -2.4635414664       -0.9748123439        0.5295889864
 C         -2.4131957894        0.3347113275       -0.0097173864
 C         -3.5929397019        1.1778213758        0.2485834849
 C         -4.6010836927        0.7000688877        0.9988495516
 C         -5.8794074728        1.4302865995        1.2895649341
 C         -6.9534157079        1.1080509587        0.2410845594
 C         -6.4674207195        1.2416013255       -1.2022071983
 H         -5.7100040184        0.4784826128       -1.3958352260
 H         -7.3167325776        1.0221258684       -1.8528657690
 C         -5.8961505491        2.6221268306       -1.5548328702
 H         -6.2979435163        2.9301327562       -2.5224509850
 H         -6.2239802518        3.3575305259       -0.8192921623
 C         -4.3713151104        2.6671185916       -1.6712138969
 H         -4.0319943684        1.8701363374       -2.3379763700
 H         -4.0937370676        3.6185492434       -2.1326309486
 C         -3.5971061572        2.5557023195       -0.3515038544
 H         -2.5496501029        2.7944140126       -0.5582453714
 H         -3.9813998197        3.2863037515        0.3630047546
 H         -7.8043921573        1.7720479486        0.4032736818
 H         -7.2906144229        0.0802793024        0.3950868809
 H         -6.2377955990        1.1177719434        2.2718339457
 H         -5.6843197446        2.5007203443        1.3084182518
 O         -4.5865790714       -0.5407494470        1.5498291176
 C         -3.5279765480       -1.4046333894        1.3274193362
 O         -3.6445000644       -2.5100013279        1.8935194062
 H          0.7087813417       -1.3329455903       -1.4122494602
 C          0.9323089625       -1.0739139740       -0.3887743030
 C         -0.0037356600       -1.3159518026        0.6034394982
 C          0.3013511573       -0.9448272799        1.9099661513
 C          1.5085513356       -0.3442410997        2.2112226154
 C          2.4383315671       -0.0991861569        1.2158515271
 C          2.1435264599       -0.4630267900       -0.0903133581
 N          3.0784845542       -0.2000379505       -1.1064872335
 S          4.6536056308       -0.7347599146       -0.8953372925
 O          5.1875652155       -0.8823679733       -2.2320637406
 O          4.7034106984       -1.9071643062       -0.0520333499
 C          5.4724561462        0.6275697842       -0.0928907795
 C          5.4537083542        1.8594982661       -0.7169233443
 C          6.0944222008        2.9271668925       -0.1089324743
 C          6.7422952299        2.7453487335        1.1039601681
 C          6.7553934750        1.5012961478        1.7157930139
 C          6.1151125343        0.4294497827        1.1133707243
 H          6.0946445232       -0.5544389247        1.5544787451
 H          7.2600887777        1.3619175491        2.6583421867
 H          7.2402230111        3.5782282969        1.5749025253
 H          6.0862528534        3.8962152858       -0.5815064716
 H          4.9425641448        1.9586832364       -1.6599939338
 H          2.7429346115       -0.4139442197       -2.0342964498
 H          3.3805785627        0.3729811831        1.4417216268
 H          1.7283244711       -0.0613903360        3.2296230841
 H         -0.4275935909       -1.1312986101        2.6874486388
 C         -1.3342708561       -1.9718597774        0.3294600033
 H         -1.4931574564       -2.7369579510        1.1071152474
 C         -1.3786839905       -2.7023561868       -1.0048695582
 C         -2.6899991284       -3.0432056851       -1.6459286163
 C         -1.7841364742       -2.0351669541       -2.2834755050
 H         -1.2687341742       -2.3144594942       -3.1914220800
 H         -2.0581650728       -0.9930981189       -2.2415860534
 H         -2.7980047373       -4.0102161894       -2.1136582071
 H         -3.5879742901       -2.6913997934       -1.1588242121
 H         -0.5994588005       -3.4561433211       -1.0751074581
 O         -1.4490437680        0.7895022359       -0.6767562782
