  62
        -98.94120873
 C          0.8400718736        1.6393331309       -0.7837345330
 C          2.1282552778        1.7253398591       -0.1999643957
 C          3.0511642006        0.6020744972       -0.4334522221
 C          2.6251732796       -0.4421403400       -1.1644590968
 C          3.3378717966       -1.7404940667       -1.4255526769
 C          2.9669424381       -2.7749508569       -0.3471851793
 C          3.8838638315       -2.7805803195        0.8737497188
 H          3.4675631130       -3.4963457434        1.5866428664
 H          4.8746497415       -3.1380448495        0.5838635885
 C          4.0256980823       -1.4249718237        1.5698245507
 H          3.0440983980       -0.9486853728        1.6294566816
 H          4.3577664013       -1.6056100613        2.5943704417
 C          5.0291188429       -0.4906861754        0.8775769700
 H          5.7391997878       -0.1128213658        1.6163963082
 H          5.6103300635       -1.0631120392        0.1547792151
 C          4.4131994211        0.7361167326        0.1922114869
 H          5.1092277927        1.1027663521       -0.5704138400
 H          4.3014392885        1.5412591209        0.9254161806
 H          1.9431651738       -2.5748942755       -0.0160622812
 H          2.9839275236       -3.7728271360       -0.7913883587
 H          2.9866298513       -2.1004079220       -2.3948232088
 H          4.4127359606       -1.5934931067       -1.4754835773
 O          1.3949226394       -0.4724604654       -1.7393964985
 C          0.4669316499        0.5384586689       -1.5548510573
 O         -0.6160637169        0.3238700473       -2.1345910806
 O          2.4915110147        2.7083983478        0.5039274447
 C         -0.1397203664        2.7436830636       -0.4231407461
 C         -0.9043576891        2.3342952982        0.8154368223
 C         -1.0384344068        3.1854806459        1.9056323441
 C         -1.6818044854        2.7585152455        3.0544405919
 C         -2.1653025023        1.4658470521        3.1540456914
 C         -2.0363165739        0.6090771456        2.0672363392
 C         -1.4503705115        1.0622091144        0.8965874286
 H         -1.3794020914        0.3927566398        0.0555679050
 N         -2.4740395034       -0.7229795698        2.1165632244
 S         -1.5430090761       -1.8967431935        1.3568251650
 O         -1.8668284048       -3.1205794846        2.0653269076
 O         -0.1414895632       -1.5447699916        1.3398638068
 C         -2.1965311998       -2.0272918319       -0.2919528638
 C         -1.3779816858       -2.5309594746       -1.2814275260
 C         -1.8899310994       -2.6946981594       -2.5578000168
 C         -3.2066772895       -2.3544286431       -2.8203342488
 C         -4.0171465744       -1.8516139751       -1.8145611666
 C         -3.5120052698       -1.6882783474       -0.5350730926
 H         -4.1117857750       -1.2911003156        0.2671471982
 H         -5.0397140211       -1.5811143066       -2.0243716972
 H         -3.6005172581       -2.4756158659       -3.8172822182
 H         -1.2544901440       -3.0746947260       -3.3416334040
 H         -0.3521060938       -2.7653563524       -1.0437519982
 H         -2.8058942773       -1.0364153450        3.0173479170
 H         -2.6278949796        1.1187074151        4.0653301333
 H         -1.7814831863        3.4295629280        3.8940849680
 H         -0.6148098419        4.1776610291        1.8592198281
 H          0.4770247482        3.6145762617       -0.1615027231
 C         -1.0888402734        3.1413481691       -1.5349355191
 C         -1.6996003268        4.5095606186       -1.5163843092
 C         -0.6576683487        4.1673539053       -2.5377787001
 H         -0.9595750950        4.0381246077       -3.5659420836
 H          0.3285018856        4.5935018793       -2.4232343855
 H         -2.7223362279        4.6191727542       -1.8420883677
 H         -1.4200448274        5.1740004308       -0.7130455011
 H         -1.6964975029        2.3206241397       -1.8922228925
