  62
        -98.94144638
 C          1.6397884595        1.1647487989        0.1683259203
 C          1.6848203294       -0.1896782512        0.5872821102
 C          2.7836949094       -1.0052131012        0.0563108103
 C          3.6603864096       -0.4438145111       -0.7960855395
 C          4.8549708597       -1.1384150111       -1.3814345294
 C          6.0986538595       -0.9400694912       -0.5040444191
 C          5.8628516992       -1.2401280214        0.9762244808
 H          5.1652454492       -0.5041079214        1.3826928908
 H          6.8146908392       -1.0992064315        1.4929595010
 C          5.3305853091       -2.6517011714        1.2603468305
 H          5.8858857790       -3.0724911716        2.1012669406
 H          5.5105179293       -3.2961642713        0.3991774205
 C          3.8481821891       -2.7069209714        1.6344323802
 H          3.6461986889       -1.9924017615        2.4366458803
 H          3.6334287390       -3.7051148415        2.0255653001
 C          2.8585436293       -2.4416074512        0.4927048001
 H          1.8596515492       -2.6966156912        0.8596135899
 H          3.0930122994       -3.0903543811       -0.3539926499
 H          6.4252505896        0.0984339788       -0.5951054289
 H          6.8958392896       -1.5812164612       -0.8845477391
 H          4.6369329397       -2.1994790110       -1.4855782895
 H          5.0477641199       -0.7166688509       -2.3692341793
 O          3.5778295497        0.8500680890       -1.1901968293
 C          2.5708034297        1.6914203689       -0.7284361494
 O          2.6341715798        2.8435243690       -1.1920464893
 H         -1.9981797607        1.1827691388        1.3790008897
 C         -1.9114254605        1.4311727390        0.3321107197
 C         -0.7033508704        1.8771589390       -0.1814053200
 C         -0.6192776602        2.1750885792       -1.5389566599
 C         -1.7267796400        2.0367147893       -2.3544341001
 C         -2.9278910701        1.5773428693       -1.8409692704
 C         -3.0188654404        1.2664746291       -0.4900850305
 N         -4.2222141005        0.7929625191        0.0617680592
 S         -4.1961128607       -0.6025817210        0.9913832291
 O         -5.5864423808       -0.9875299710        1.0988163788
 O         -3.5094990310       -0.3537378112        2.2314494292
 C         -3.3216743506       -1.7848655809       -0.0175723309
 C         -4.0619377305       -2.5239104408       -0.9214047212
 C         -3.4082107103       -3.3965125007       -1.7748336712
 C         -2.0265571404       -3.5060657608       -1.7205298009
 C         -1.2996017305       -2.7558929309       -0.8102321607
 C         -1.9471285606       -1.8858326510        0.0540177593
 H         -1.3883209007       -1.3035587711        0.7701224595
 H         -0.2243885305       -2.8315276010       -0.7610439105
 H         -1.5129656403       -4.1801481107       -2.3878737809
 H         -3.9737406002       -3.9842062206       -2.4798655213
 H         -5.1341856005       -2.4114269807       -0.9251001713
 H         -4.9858596604        0.7506403292       -0.5986219609
 H         -3.7886763800        1.4602188594       -2.4815810106
 H         -1.6521527098        2.2786324595       -3.4038411601
 H          0.3223346899        2.5172006092       -1.9419088097
 C          0.4984105094        2.0010409788        0.7200108803
 H          0.2356945892        1.5230398287        1.6779254301
 C          0.8814243094        3.4411024788        1.0276438905
 C          0.3245084096        4.6246416689        0.3006435906
 C         -0.1111432507        4.3400641087        1.7045835304
 H          0.2301429992        4.9867072086        2.4987604606
 H         -1.1089638507        3.9520586287        1.8492905902
 H         -0.3825210803        4.4537019190       -0.4953287996
 H          0.9898924397        5.4549009389        0.1198173408
 H          1.9127387094        3.5254062187        1.3544758807
 O          0.8392667992       -0.6923334913        1.3762196900
