  62
        -98.94437167
 C          1.8465237695        1.0443235097       -0.2166057406
 C          2.3820004597       -0.0896069602       -0.8732442905
 C          3.8463957097       -0.2162568099       -0.8339813306
 C          4.5758001295        0.7358146404       -0.2239338707
 C          6.0670189996        0.6997445108       -0.0590020508
 C          6.4607649598        0.0229049510        1.2615575292
 C          5.7660144201       -1.3179323291        1.4996200195
 H          6.1419899903       -1.7154856889        2.4448251795
 H          4.6943529601       -1.1478222293        1.6259710995
 C          5.9844683103       -2.3528274692        0.3871160596
 H          6.2138768106       -3.3169979391        0.8457472197
 H          6.8459364002       -2.0695233191       -0.2187201005
 C          4.7746287003       -2.5703823096       -0.5238156103
 H          3.8867875104       -2.7645280597        0.0836378298
 H          4.9593383905       -3.4635156596       -1.1268090202
 C          4.4526543300       -1.4240698898       -1.4909671404
 H          5.3492214399       -1.1514934497       -2.0515052705
 H          3.7016476000       -1.7880100001       -2.1984965003
 H          6.2019299697        0.6932616111        2.0843958692
 H          7.5428331098       -0.1199063187        1.2673249092
 H          6.4381844493        1.7259469009       -0.0560267310
 H          6.5080410096        0.1666605607       -0.8988869908
 O          4.0257078993        1.8275813603        0.3664302591
 C          2.6518037093        2.0022700900        0.3987266192
 O          2.2759620491        3.0304531400        0.9970266091
 O          1.6772399199       -0.9531793605       -1.4582397203
 C          0.3434116994        1.2560420794       -0.1822900206
 C         -0.3360296203        0.0462014493        0.4103863497
 C          0.1631249999       -0.4893969604        1.5959384897
 C         -0.4088358198       -1.6106503504        2.1626874099
 C         -1.5048137597       -2.2136078908        1.5698856301
 C         -2.0209830499       -1.6787912111        0.3969496400
 C         -1.4429514102       -0.5503400210       -0.1717757302
 H         -1.8561257703       -0.1694161713       -1.0904437502
 N         -3.1312740398       -2.2670421914       -0.2258232198
 S         -4.3106897300       -1.3028121518       -0.9061901699
 O         -5.4964287798       -2.1329954521       -0.9112310397
 O         -3.8868702802       -0.8082706919       -2.1913131600
 C         -4.5216983003        0.0536035183        0.2346452899
 C         -4.7937548001       -0.2353164316        1.5576556100
 C         -4.9503079903        0.8093724985        2.4534182999
 C         -4.8368026106        2.1196171685        2.0137311997
 C         -4.5719149408        2.3932893384        0.6812612296
 C         -4.4108151206        1.3513836083       -0.2184308203
 H         -4.1982764807        1.5202659482       -1.2614002003
 H         -4.4880287711        3.4127141683        0.3393296495
 H         -4.9569512008        2.9320354686        2.7129657996
 H         -5.1590230502        0.6001696686        3.4901977199
 H         -4.8868769399       -1.2629932215        1.8685505301
 H         -3.5248666495       -3.0585475215        0.2607651403
 H         -1.9482053494       -3.0964781508        2.0045598402
 H         -0.0009440796       -2.0199250302        3.0746767399
 H          1.0202693299       -0.0187799201        2.0587595496
 H          0.1708356793        2.1109208795        0.4880520893
 C         -0.1555262108        1.6154464691       -1.5662264006
 C         -1.3446566310        2.5104577488       -1.7344835606
 C          0.0274080889        3.0188587891       -2.0578379508
 H          0.2932818588        3.1724821390       -3.0929820008
 H          0.4865446488        3.7234421693       -1.3794968709
 H         -2.0233610410        2.3114581285       -2.5507233805
 H         -1.8208426210        2.8781389688       -0.8382719606
 H         -0.0133324706        0.8136730290       -2.2824541405
