  62
        -98.93180553
 C          2.3496520080        1.1027456134        0.1640033826
 C          2.6553860883       -0.1800874852       -0.3432906806
 C          4.0719224330       -0.5921559768       -0.2811647765
 C          4.9806368191        0.2639310726        0.2199418424
 C          6.4673734773        0.0741895405        0.3860818746
 C          7.2161216943       -0.5615936152       -0.7954143329
 C          7.7093255307       -1.9808430650       -0.5089708481
 H          8.5552081486       -2.1960201074       -1.1656317594
 H          8.0766011969       -2.0201978839        0.5185955331
 C          6.6716733394       -3.0825913155       -0.7170791097
 H          6.4907280339       -3.2110330395       -1.7864506509
 H          7.1018127868       -4.0158625311       -0.3460634752
 C          5.3259935107       -2.8543437566       -0.0253792325
 H          5.4732471572       -2.4408037887        0.9715551094
 H          4.8469250768       -3.8274999531        0.1013742483
 C          4.3644996630       -1.9635131245       -0.8263515170
 H          4.7182982766       -1.8645654540       -1.8567977627
 H          3.3841372705       -2.4460723605       -0.8917616028
 H          6.5847918475       -0.5512677295       -1.6825204017
 H          8.0864021273        0.0602407946       -1.0113030981
 H          6.8597565321        1.0751492900        0.5790879710
 H          6.6431851322       -0.5090030894        1.2933470587
 O          4.6359262712        1.4948262719        0.6985082377
 C          3.3289385208        1.9423835609        0.6908830244
 O          3.1686105417        3.0817152225        1.1741415529
 O          1.7872785829       -0.9552112144       -0.8247596583
 C          0.9201366166        1.6089910232        0.1377219873
 C          0.0017986177        0.6601769645        0.8693294561
 C          0.3810815897        0.1779670232        2.1198457977
 C         -0.4439584888       -0.6724486745        2.8293971702
 C         -1.6753772776       -1.0446265140        2.3187880623
 C         -2.0651369172       -0.5665727832        1.0742053711
 C         -1.2272890054        0.2773656126        0.3574654374
 H         -1.5581004912        0.6308550267       -0.6045755815
 N         -3.3002752978       -0.9353555815        0.5169668477
 S         -4.1431003488        0.2186036517       -0.3831885502
 O         -3.6688297175        0.1919830825       -1.7437854816
 O         -4.0957439652        1.4987333566        0.2863752505
 C         -5.7937596018       -0.4542115726       -0.3103189270
 C         -6.6794113334        0.0277089843        0.6351327508
 C         -7.9514372816       -0.5186837735        0.7024908632
 C         -8.3134899456       -1.5340335089       -0.1699313123
 C         -7.4139771020       -2.0070054452       -1.1139839708
 C         -6.1409140158       -1.4644313183       -1.1875383625
 H         -5.4121148926       -1.7929664322       -1.9101156981
 H         -7.7001642483       -2.7943656011       -1.7925270057
 H         -9.3040598039       -1.9572917023       -0.1160196909
 H         -8.6539712677       -0.1506290049        1.4327397472
 H         -6.3568705048        0.8245837596        1.2858804562
 H         -3.9022043921       -1.4126959085        1.1738748385
 H         -2.3234598192       -1.7041032909        2.8758732450
 H         -0.1310618335       -1.0415884685        3.7947058643
 H          1.3378103357        0.4791788018        2.5257128187
 H          0.9243090143        2.5627784137        0.6873631017
 C          0.4901255612        1.8766553546       -1.2898175381
 C         -0.5479164370        2.9161480915       -1.5842144798
 C          0.8854666632        3.1652626399       -1.9432280374
 H          1.1668353418        3.1505014812       -2.9854267354
 H          1.4475463071        3.8697035179       -1.3471614798
 H         -1.2573915649        2.7245149583       -2.3758917312
 H         -0.9672915230        3.4550053843       -0.7474578143
 H          0.4996873770        0.9808919934       -1.9013263680
