  62
        -98.93885063
 C         -1.1912692471       -1.2430466361       -0.8683280187
 C         -2.5435197705       -1.4077381302       -0.4505810866
 C         -3.4159655307       -0.2331228176       -0.5214997594
 C         -2.9231826389        0.9318043548       -0.9758806292
 C         -3.6829370263        2.2209255008       -1.1314501159
 C         -3.7747049672        3.0452387199        0.1597031594
 C         -4.7249398340        2.4858893247        1.2192707043
 H         -4.8667900614        3.2683806218        1.9674256999
 H         -5.6969832558        2.2872526264        0.7663853044
 C         -4.2134869260        1.2204686909        1.9223593974
 H         -3.1369581950        1.1212758280        1.7590971211
 H         -4.3607651084        1.3189951740        3.0005472710
 C         -4.9053103021       -0.0721643585        1.4879309704
 H         -5.9581864087       -0.0379983470        1.7771945643
 H         -4.4360538820       -0.9043573769        2.0190307164
 C         -4.8211193742       -0.3623204946       -0.0161108052
 H         -5.1421145740       -1.3932024451       -0.1843035901
 H         -5.4843837102        0.3057380236       -0.5654521763
 H         -4.1180031356        4.0457196246       -0.1143051771
 H         -2.7726369330        3.1414303171        0.5857687820
 H         -4.6865291825        2.0129068449       -1.5040457955
 H         -3.1479171305        2.8099620375       -1.8795245645
 O         -1.6360887461        1.0566998910       -1.3791532734
 C         -0.7314999609        0.0017810140       -1.3080589160
 O          0.4074728143        0.3363762598       -1.6830878151
 O         -3.0099721863       -2.5046983745       -0.0372838766
 C         -0.3346969306       -2.4911304640       -0.7202764314
 C          0.5818693359       -2.4337768736        0.4818679703
 C          0.6478801013       -3.5083374385        1.3637671531
 C          1.4716759713       -3.4598271568        2.4737118525
 C          2.2283815281       -2.3322412032        2.7402028848
 C          2.1712008965       -1.2557709122        1.8633826614
 C          1.3724212663       -1.3232794303        0.7313093379
 H          1.3462533970       -0.4839480826        0.0593430063
 N          2.9259717905       -0.0957305116        2.0850012121
 S          2.3312806424        1.3968502133        1.6125960928
 O          3.0753144826        2.3443582040        2.4214537597
 O          0.8935384404        1.4691512156        1.7507709133
 C          2.8377025942        1.6003587593       -0.0805788120
 C          2.2077132947        2.5747754142       -0.8264488279
 C          2.6135187963        2.7872596138       -2.1333565569
 C          3.6365931570        2.0225939442       -2.6698643161
 C          4.2597254698        1.0481855744       -1.9067969020
 C          3.8624247107        0.8345500301       -0.5967464535
 H          4.3196487045        0.0760425290        0.0169492010
 H          5.0490037682        0.4476754300       -2.3300969821
 H          3.9433317758        2.1819844079       -3.6918047918
 H          2.1208405273        3.5383581569       -2.7301302446
 H          1.4002185353        3.1327064673       -0.3784407859
 H          3.4130287460       -0.0501095893        2.9677532168
 H          2.8533879389       -2.2825881074        3.6187423374
 H          1.5123552858       -4.3005205771        3.1496260860
 H          0.0345328418       -4.3788838974        1.1818643376
 H         -1.0837478808       -3.2693112346       -0.5022702853
 C          0.4405587665       -3.0119571393       -1.9281553354
 C          0.2005327147       -2.5474236727       -3.3306212907
 C          1.5105155477       -2.2619603836       -2.6593660980
 H          2.3824121992       -2.8137592265       -2.9788527029
 H          1.7052657707       -1.2424514376       -2.3720125294
 H          0.1602888766       -3.2834959421       -4.1200434105
 H         -0.4741066683       -1.7153693232       -3.4708844876
 H          0.6281043345       -4.0767884043       -1.8164965227
