  62
        -98.94826720
 C         -1.3397418599       -1.1750113388       -0.0302904818
 C         -2.1208743696       -0.5897401090        0.9942310485
 C         -2.6585567688        0.7469989815        0.7111430493
 C         -2.3596607683        1.3420161721       -0.4579611403
 C         -2.8650580175        2.6868204327       -0.8915007795
 C         -4.1813138074        2.5630314940       -1.6720410198
 C         -5.2299662380        1.6928403441       -0.9795275804
 H         -6.1252753680        1.7019613351       -1.6047076705
 H         -4.8711544687        0.6617201039       -0.9451407011
 C         -5.5936215379        2.1481577535        0.4405342098
 H         -6.6796465480        2.1202321540        0.5509386997
 H         -5.2789210974        3.1814730632        0.5910218605
 C         -5.0107668886        1.2759784724        1.5541003293
 H         -5.4985317486        1.5510823821        2.4930950494
 H         -5.2453476092        0.2264659727        1.3589419786
 C         -3.4974058086        1.3974688914        1.7744643696
 H         -3.2222895579        2.4484202511        1.8898501803
 H         -3.2521020990        0.8794660206        2.7067076493
 H         -3.9640442176        2.1253064145       -2.6488942400
 H         -4.5838292568        3.5651963943       -1.8298387492
 H         -3.0059752172        3.3142380722       -0.0133110291
 H         -2.1112282871        3.1452753227       -1.5340433691
 O         -1.5899024285        0.7583324923       -1.4103313906
 C         -1.0602562693       -0.5121756982       -1.2241110813
 O         -0.3719243595       -0.9227463880       -2.1771835315
 H          0.7199151702       -0.7673649510        1.5729723387
 C          1.3557432699       -1.4161282610        0.9871601484
 C          0.7870604294       -2.4130109002        0.2022346577
 C          1.6274785690       -3.2389182702       -0.5326745428
 C          2.9990057191       -3.0548817510       -0.4941540425
 C          3.5579208896       -2.0446762419        0.2663878682
 C          2.7266300700       -1.2184566318        1.0145674887
 N          3.2595061405       -0.1831302927        1.8099191994
 S          2.7281460915        1.3820063878        1.5454199403
 O          3.6214544519        2.2098838068        2.3263465610
 O          1.3245231215        1.4897542785        1.8496510502
 C          3.0151056718        1.6547094788       -0.1913766295
 C          2.0604254617        1.2262445699       -1.0898063299
 C          2.3091395519        1.3476182606       -2.4470680898
 C          3.5047536923        1.8996882902       -2.8801020193
 C          4.4532195224        2.3328902790       -1.9648507389
 C          4.2131510822        2.2032592583       -0.6064894190
 H          4.9211677323        2.5265295674        0.1394408213
 H          5.3798545427        2.7651914587       -2.3066188685
 H          3.6962385825        1.9922603607       -3.9374804792
 H          1.5640526118        0.9939404115       -3.1423467401
 H          1.1397431914        0.8019095702       -0.7230105302
 H          4.2694644505       -0.1885739533        1.8555140895
 H          4.6268125997       -1.8953697325        0.2867034785
 H          3.6403403188       -3.7012077410       -1.0734963328
 H          1.2088573086       -4.0240664096       -1.1401344433
 C         -0.7174604907       -2.5395918593        0.2051796174
 H         -1.0304332410       -2.8302524197        1.2194643772
 C         -1.2499130612       -3.5570603083       -0.7810769733
 C         -1.3009098721       -5.0087145785       -0.4118223642
 C         -2.5675737716       -4.2135009777       -0.5019546139
 H         -3.2374103816       -4.3978600468       -1.3284019941
 H         -3.0712063516       -3.9444350180        0.4153483462
 H         -1.1039642524       -5.7432767582       -1.1779115547
 H         -0.9474591824       -5.2874797394        0.5693729656
 H         -1.0306626609       -3.2952583878       -1.8098081431
 O         -2.3555580401       -1.1607834295        2.0944253981
