  62
        -98.94701583
 C         -2.3073320080       -0.4300097650       -0.4679975556
 C         -1.4376549621        0.4598072909       -1.1425661110
 C         -1.6486768021        1.8921463703       -0.8857402445
 C         -2.6083766006        2.2798046226       -0.0283427455
 C         -2.8965992672        3.7002776474        0.3607876471
 C         -2.1033876722        4.1148815647        1.6072727498
 C         -0.6100660942        3.7946138393        1.5315972373
 H         -0.4655389451        2.7110306742        1.5411938892
 H         -0.1488098729        4.1806611556        2.4439187550
 C          0.1068854864        4.3833424506        0.3086523928
 H          1.0543470376        4.8162963569        0.6367173624
 H         -0.4889824896        5.1897679756       -0.1217181038
 C          0.4385223155        3.3533453229       -0.7725442138
 H          0.9158499515        2.4900968015       -0.3019874974
 H          1.1612160090        3.7989390212       -1.4617957598
 C         -0.7520154058        2.8602882144       -1.6056345676
 H         -0.3545765218        2.3183027589       -2.4686125512
 H         -1.3247395042        3.7151762850       -1.9719071527
 H         -2.5200249739        3.5944463943        2.4729423416
 H         -2.2381159447        5.1879148894        1.7587149150
 H         -2.6509769160        4.3559807584       -0.4724454089
 H         -3.9632411700        3.7858266517        0.5767229409
 O         -3.4186176092        1.4001580034        0.6143163333
 C         -3.2800880868        0.0377685717        0.4208751515
 O         -4.0847913128       -0.6535945853        1.0795579602
 H          0.3655075679       -1.2343993641       -0.2936143080
 C          0.0734824607       -1.9799853858        0.4249540288
 C         -1.2197742376       -2.4823859998        0.4052044183
 C         -1.5729444155       -3.4574767434        1.3297291222
 C         -0.6549172175       -3.9028886131        2.2644357531
 C          0.6150886935       -3.3583921328        2.3159697576
 C          0.9780553445       -2.3804922527        1.3954152274
 N          2.2508993402       -1.7912985533        1.4365909953
 S          2.4398524098       -0.1214580067        1.2956043242
 O          3.3302271009        0.2440864820        2.3810180437
 O          1.1667858996        0.5532246483        1.2662291453
 C          3.3341917561        0.0607984652       -0.2350506339
 C          2.6706632475        0.2442377974       -1.4308384607
 C          3.4153790192        0.3592210403       -2.5956873554
 C          4.7983322152        0.2868082954       -2.5493365069
 C          5.4502196025        0.1008381142       -1.3393569937
 C          4.7135859158       -0.0134932015       -0.1726169645
 H          5.1785196094       -0.1437875296        0.7906366481
 H          6.5263148333        0.0459483693       -1.3022224335
 H          5.3695429207        0.3772841455       -3.4599296895
 H          2.9018394181        0.5035414118       -3.5329150108
 H          1.5929593252        0.2992282770       -1.4567214965
 H          2.8346955357       -2.1371333764        2.1848987788
 H          1.3206909572       -3.6799347239        3.0675812363
 H         -0.9386623613       -4.6633343248        2.9763721149
 H         -2.5790156653       -3.8506870726        1.3270332521
 C         -2.2269944292       -1.9456600629       -0.5848627429
 H         -3.2164746329       -2.3197810970       -0.2868642833
 C         -1.9309141384       -2.4443039651       -1.9852547697
 C         -2.3626739740       -3.8263566584       -2.3694004929
 C         -3.0612292857       -2.6338676191       -2.9494196319
 H         -2.8975566762       -2.3898217416       -3.9881037418
 H         -4.0583550241       -2.4065584658       -2.6003714459
 H         -2.8896592835       -4.4112311996       -1.6307638268
 H         -1.7173076317       -4.4063418758       -3.0108388350
 H         -0.9939935063       -2.0792153726       -2.3831524366
 O         -0.5247167491        0.1039297704       -1.9354797379
