  62
        -98.94491248
 C         -1.8541530651       -0.4014606593        0.0589811111
 C         -2.9246523179       -0.4841176478        0.9900180525
 C         -4.0809585889        0.3847796758        0.7418591352
 C         -4.0617586894        1.2127224300       -0.3180992851
 C         -5.1886498216        2.1167368514       -0.7235604926
 C         -6.1349854301        1.4176982762       -1.7097198940
 C         -6.5766911423        0.0249665896       -1.2600978472
 H         -7.2648301281       -0.3577688498       -2.0169033156
 H         -5.7086962860       -0.6381524259       -1.2502183803
 C         -7.2572112896       -0.0122364804        0.1154080732
 H         -7.5897227714        0.9890332955        0.3917363280
 H         -8.1469461407       -0.6419335334        0.0489814847
 C         -6.3890129085       -0.5851606638        1.2372172498
 H         -5.9774824084       -1.5485729445        0.9260223386
 H         -7.0302972154       -0.7679947761        2.1035319838
 C         -5.2309381973        0.3048933748        1.7059268749
 H         -4.8241681908       -0.1334899344        2.6218756487
 H         -5.6059286768        1.3032062911        1.9409336493
 H         -5.6240986243        1.3213525178       -2.6705826459
 H         -7.0121546320        2.0511410327       -1.8537800755
 H         -5.7362257837        2.4258732561        0.1647504120
 H         -4.7653804379        3.0006810099       -1.2038277816
 O         -3.0145584457        1.2830145462       -1.1752842301
 C         -1.8917414529        0.4823181992       -1.0193001104
 O         -1.0295376238        0.6708910410       -1.9022195249
 O         -2.9124778013       -1.2593392145        1.9828182766
 C         -0.6708110861       -1.3219296882        0.3085708176
 C          0.4790172663       -0.5941273774        0.9628601573
 C          0.9239480109       -0.9533060411        2.2294621881
 C          2.0021540783       -0.3069527675        2.8095098085
 C          2.6584874294        0.7085569982        2.1380053682
 C          2.2152858618        1.0790112494        0.8749728715
 C          1.1393187593        0.4263275699        0.2929879521
 H          0.7985202159        0.7230822573       -0.6877142509
 N          2.8904909386        2.1013637971        0.1743095060
 S          4.5159205619        1.8004924034       -0.1115903151
 O          5.2673744362        2.0828925472        1.0857294514
 O          4.8629425970        2.5830031721       -1.2765864023
 C          4.5809815321        0.0552185445       -0.4740797917
 C          4.0478843308       -0.3781877754       -1.6716715465
 C          4.0175221868       -1.7367829153       -1.9388747056
 C          4.5103956862       -2.6346663179       -1.0044328298
 C          5.0422468763       -2.1833965903        0.1931939332
 C          5.0768408388       -0.8252388808        0.4655267826
 H          5.4808593936       -0.4316736670        1.3836031794
 H          5.4248360246       -2.8845878789        0.9170267302
 H          4.4800725977       -3.6927226013       -1.2121389176
 H          3.6052943228       -2.0879701919       -2.8714716851
 H          3.6747532570        0.3480013970       -2.3764690844
 H          2.4287595907        2.3483530180       -0.6900332324
 H          3.5052343529        1.2195393111        2.5671898124
 H          2.3357706416       -0.5974352263        3.7939041767
 H          0.4111179918       -1.7391472999        2.7643381221
 H         -1.0400587728       -2.0696565004        1.0229996309
 C         -0.1926198432       -2.0430612241       -0.9376998095
 C          0.6196307354       -3.2924362621       -0.7844400555
 C         -0.7878451818       -3.3707766070       -1.2934251160
 H         -0.9512517693       -3.5984582731       -2.3361331833
 H         -1.5473590046       -3.7702787455       -0.6371116836
 H          1.4283382661       -3.4666680779       -1.4764412331
 H          0.8158701373       -3.6398871810        0.2182389779
 H          0.0561260678       -1.3757628725       -1.7522392412
