  62
        -98.94174669
 C          2.2614533856        1.1558170918        0.3611181904
 C          2.0062449772        0.2675341484       -0.7137670248
 C          2.6156681883       -1.0677766510       -0.5982737437
 C          3.2934205975       -1.3951604290        0.5158277075
 C          3.8864753830       -2.7450352385        0.7948585627
 C          2.8805694158       -3.6542455944        1.5156280358
 C          1.5031465378       -3.7056318463        0.8532510807
 H          1.0304733388       -2.7235930975        0.9316419974
 H          0.8936619579       -4.4033029894        1.4317902101
 C          1.5240982521       -4.1390477596       -0.6190368820
 H          0.7310943645       -4.8715131589       -0.7815811461
 H          2.4699246720       -4.6326869615       -0.8452542485
 C          1.2941156310       -3.0011242295       -1.6146430547
 H          0.3967327086       -2.4435541522       -1.3364500938
 H          1.1178866142       -3.4410346136       -2.5994332405
 C          2.4476445101       -2.0025371980       -1.7631194253
 H          2.2240268844       -1.3685106341       -2.6259859521
 H          3.3787945313       -2.5377091184       -1.9609703163
 H          2.7564339734       -3.2898565750        2.5382678636
 H          3.3003953664       -4.6607058186        1.5638444885
 H          4.7630027195       -2.6121872922        1.4313703114
 H          4.1971685988       -3.2010119972       -0.1431875595
 O          3.4636862624       -0.5370799618        1.5548384744
 C          2.9585825089        0.7518074748        1.5024634884
 O          3.1809231771        1.4282821374        2.5275614806
 O          1.3129261111        0.5567628013       -1.7210532851
 C          1.7175920651        2.5748255339        0.3703276830
 C          0.2557294171        2.5647662685       -0.0037697854
 C         -0.2563024739        3.1734597106       -1.1410843933
 C         -1.6122650217        3.1150019694       -1.4124903561
 C         -2.4835140248        2.4620179539       -0.5599398595
 C         -1.9807892243        1.8432852945        0.5781860285
 C         -0.6204358567        1.8983291082        0.8444355938
 H         -0.2253835963        1.4161582538        1.7310221892
 N         -2.8452776446        1.2004360890        1.4797396411
 S         -4.1052272070        0.2316538180        0.9707486935
 O         -5.0724956248        1.0332046594        0.2646924088
 O         -4.5697202145       -0.4207363330        2.1737744833
 C         -3.3958144637       -0.9777744770       -0.1293595431
 C         -3.4070314443       -0.7608253117       -1.4920585224
 C         -2.8425210944       -1.7135409962       -2.3254438661
 C         -2.2813232620       -2.8597254080       -1.7850987949
 C         -2.2730752219       -3.0605951799       -0.4128070751
 C         -2.8309860963       -2.1097612015        0.4250852040
 H         -2.8570285054       -2.2348427505        1.4958732127
 H         -1.8314256334       -3.9509511890        0.0051639033
 H         -1.8478794687       -3.6020460270       -2.4364382361
 H         -2.8417691417       -1.5580088275       -3.3921647110
 H         -3.8643203402        0.1353885854       -1.8770065833
 H         -2.3767750133        0.7860566446        2.2713635571
 H         -3.5431634260        2.4277351327       -0.7535534704
 H         -1.9986303785        3.5890552423       -2.3020836769
 H          0.4088058901        3.6730972525       -1.8257281185
 H          1.7875125328        2.8966380380        1.4228186399
 C          2.5407021676        3.5689140081       -0.4347639727
 C          4.0260354163        3.4089888245       -0.5591433344
 C          3.1501582783        3.2358999985       -1.7617441008
 H          3.1691330584        4.0043277413       -2.5208977944
 H          2.9963183319        2.2424405350       -2.1506970106
 H          4.6454193680        4.2908012827       -0.4921883763
 H          4.4714655261        2.5289943327       -0.1175301824
 H          2.1777535221        4.5844147144       -0.3072527558
