  62
        -98.94733940
 C         -1.7752433798       -1.2150822887       -0.4299454415
 C         -1.2091192300       -1.8575367100        0.7007696579
 C         -0.0572533403       -2.7370850202        0.4287872770
 C          0.4030474696       -2.8679950292       -0.8273143431
 C          1.5971347192       -3.6816442493       -1.2321640839
 C          2.8852721696       -2.8478724198       -1.2103061132
 C          3.1103381099       -2.0792576011        0.0919202075
 H          4.0790554101       -1.5801223915        0.0127412379
 H          2.3590928102       -1.2926245509        0.1886816183
 C          3.0812279696       -2.9432168623        1.3596627167
 H          3.9093997298       -2.6430648132        2.0051696269
 H          3.2319090892       -3.9930244721        1.1027351257
 C          1.8013812497       -2.7960717526        2.1856330969
 H          1.5908838701       -1.7350392126        2.3447320979
 H          1.9762381496       -3.2446525136        3.1679116065
 C          0.5478868194       -3.4591518215        1.5993797263
 H          0.7694343490       -4.4964681914        1.3359541753
 H         -0.2192126105       -3.4591378519        2.3796378664
 H          2.8479883998       -2.1251259491       -2.0285128225
 H          3.7286824993       -3.5183558400       -1.3855478339
 H          1.4313322290       -4.0478601883       -2.2469601343
 H          1.6926369589       -4.5330328800       -0.5609277047
 O         -0.1634446402       -2.2368042580       -1.8872214025
 C         -1.2518622799       -1.3988871877       -1.7139072017
 O         -1.6648444397       -0.8791793165       -2.7698709312
 O         -1.6254969599       -1.7286508109        1.8815836180
 C         -2.9286743094       -0.2246982083       -0.3661189905
 C         -2.3906187888        1.1828798814       -0.2392717892
 C         -2.8804878284        2.2099395023       -1.0372380082
 C         -2.3523513579        3.4849769320       -0.9455104771
 C         -1.3035067978        3.7501526908       -0.0835087169
 C         -0.8048881281        2.7299455298        0.7184132422
 C         -1.3724470886        1.4649758601        0.6600023610
 H         -0.9917689689        0.6901232194        1.3077310003
 N          0.2834129020        2.9581307986        1.5803928423
 S          1.5911226216        1.9129996381        1.5298226713
 O          1.2245746011        0.6273474078        2.0591156801
 O          2.6405920819        2.6195315471        2.2316285919
 C          2.0152532515        1.7775967596       -0.1971916989
 C          2.9942396118        2.6048505097       -0.7118736181
 C          3.2976740817        2.5262840808       -2.0613935682
 C          2.6120157313        1.6353057318       -2.8737883890
 C          1.6287573010        0.8141589817       -2.3439982997
 C          1.3292993911        0.8820826806       -0.9927121197
 H          0.5710129508        0.2501523505       -0.5568545302
 H          1.0808694107        0.1236927625       -2.9673557704
 H          2.8431694912        1.5770768427       -3.9257118791
 H          4.0644443419        3.1600326509       -2.4769308676
 H          3.5053071621        3.2782775388       -0.0430131075
 H          0.6100143124        3.9143333285        1.5839210132
 H         -0.8691753474        4.7369318406       -0.0318729560
 H         -2.7437219376        4.2747487928       -1.5680920063
 H         -3.6680572085        1.9992345133       -1.7448729684
 H         -3.4386728694       -0.2937714272       -1.3376831806
 C         -3.9454099494       -0.4995837089        0.7229070693
 C         -5.3504544292       -0.0100861582        0.5466959598
 C         -5.0514982498       -1.4765125182        0.4673937284
 H         -5.3663410500       -2.1175073788        1.2768422378
 H         -5.0834562501       -1.9519769873       -0.5023675620
 H         -5.8758812590        0.3616393212        1.4128214901
 H         -5.5936725791        0.5054672028       -0.3698605797
 H         -3.5249456094       -0.4760755100        1.7194619893
