  62
        -98.93849675
 C          2.0457745296        1.3819194400        0.0367868192
 C          2.4095964692        0.3785190099       -0.8906953108
 C          3.7720799891       -0.1742396003       -0.7647180411
 C          4.5891478795        0.2728403597        0.2061908386
 C          6.0232020595       -0.0770877005        0.5441001383
 C          6.6735794192       -1.3409883007       -0.0129831317
 C          6.0718542191       -2.6502344405        0.4958424886
 H          6.5538910288       -3.4750022207       -0.0337603014
 H          6.3088870394       -2.7535560204        1.5577726085
 C          4.5580526390       -2.7826171503        0.3472551590
 H          4.2686410590       -3.7633623802        0.7348243392
 H          4.0606793793       -2.0347569802        0.9686594391
 C          4.0278333987       -2.6732371404       -1.0813086909
 H          2.9704980786       -2.9516860802       -1.0595687205
 H          4.5479494984       -3.3879747506       -1.7221073309
 C          4.1259414387       -1.2767918505       -1.7208890011
 H          5.1086819286       -1.1072277007       -2.1540583913
 H          3.3961501485       -1.2270845605       -2.5340792809
 H          6.6720473089       -1.3201710408       -1.0988093317
 H          7.7203337692       -1.3154039408        0.3020973280
 H          6.6221031296        0.7854607293        0.2310910280
 H          6.0702631698       -0.1036432704        1.6373839883
 O          4.1962248299        1.2470309798        1.0772118286
 C          2.9372674299        1.8116930800        1.0240347289
 O          2.7321605603        2.6807730702        1.8944070088
 H         -0.3758814109       -0.2455358297       -0.9293987000
 C         -0.7891167906        0.0036135705        0.0363205901
 C         -0.3455026703        1.1434404605        0.6919514298
 C         -0.8678718999        1.4351934508        1.9467757299
 C         -1.8031693298        0.6005762210        2.5337046603
 C         -2.2388289102       -0.5379145490        1.8801862606
 C         -1.7222994606       -0.8370326093        0.6256641405
 N         -2.1668852110       -1.9867158093       -0.0499786493
 S         -3.8200796310       -2.2381724590       -0.1164027088
 O         -4.2597878308       -2.8799294088        1.0981903514
 O         -4.0497185715       -2.9787978092       -1.3371586086
 C         -4.5337813308       -0.6057053889       -0.2245027388
 C         -5.3850236004       -0.1606697987        0.7660563514
 C         -5.8973067103        1.1242185114        0.6828050513
 C         -5.5472735204        1.9389053512       -0.3823739989
 C         -4.6935131608        1.4756636709       -1.3718184190
 C         -4.1796346909        0.1917623609       -1.2948409290
 H         -3.5155985112       -0.1973336193       -2.0500612591
 H         -4.4226573609        2.1111477908       -2.1995676292
 H         -5.9411981503        2.9410448613       -0.4436446689
 H         -6.5625310800        1.4860880516        1.4501217615
 H         -5.6271213603       -0.8261314785        1.5786398815
 H         -1.7334265412       -2.1176514495       -0.9523441694
 H         -2.9599212402       -1.2048435689        2.3246855608
 H         -2.1964311695        0.8380112112        3.5103119804
 H         -0.5218892196        2.3161263508        2.4679243397
 C          0.6795075497        2.0515544803        0.0550896694
 H          0.7937235600        2.9301504903        0.7034184993
 C          0.2313883194        2.5222668402       -1.3154455205
 C         -0.8740081504        3.5288622603       -1.4096147603
 C          0.5324282795        3.9260528201       -1.7419556008
 H          0.7901268293        4.1063972199       -2.7749198708
 H          1.0637908498        4.5575784101       -1.0446636010
 H         -1.5844988307        3.4377367003       -2.2164641701
 H         -1.2991154401        3.8917777005       -0.4862808103
 H          0.2809378391        1.7538648701       -2.0750361904
 O          1.6549867089       -0.0522571001       -1.8042482905
