  62
        -98.94179588
 C         -2.3771247894       -1.0527871548        0.1296463811
 C         -3.6341970102       -0.9448379158        0.7820766056
 C         -4.6280545460       -0.0765841858        0.1431173774
 C         -4.3105810866        0.5770915114       -0.9885710479
 C         -5.2213443191        1.4793066184       -1.7763905810
 C         -5.2822761261        2.9203412739       -1.2516840587
 C         -6.0482997049        3.1037962290        0.0591003570
 H         -6.1999937122        4.1766348289        0.1934137871
 H         -7.0332842387        2.6445119392       -0.0299496580
 C         -5.3283077745        2.5484931224        1.2959640165
 H         -5.3707416108        3.2838234099        2.1026010376
 H         -4.2724771526        2.3914850719        1.0625001379
 C         -5.9150194039        1.2455947827        1.8392494658
 H         -5.3070458641        0.9236698132        2.6884351463
 H         -6.9304259776        1.4234839718        2.2000904627
 C         -5.9530097767        0.0975906165        0.8222493543
 H         -6.1762747479       -0.8278396996        1.3587584513
 H         -6.7368082882        0.2731854436        0.0856505001
 H         -4.2616895045        3.2921845990       -1.1333962609
 H         -5.7688126278        3.5256756496       -2.0201058694
 H         -6.2261194160        1.0560043860       -1.7980236747
 H         -4.8306447716        1.5009404210       -2.7961473118
 O         -3.0893198010        0.4683123026       -1.5726724986
 C         -2.0874679663       -0.3308218068       -1.0298073376
 O         -1.0268302681       -0.3024400365       -1.6823642522
 O         -3.9138466314       -1.5524344446        1.8489745487
 C         -1.3365999620       -1.9453785924        0.7849213106
 C         -0.0361602323       -1.2009062260        0.9400177672
 C          0.1089120322       -0.2854117064        1.9781477416
 C          1.2763522231        0.4406421272        2.1196221851
 C          2.3191715054        0.2767114683        1.2242576098
 C          2.1746604974       -0.6171239320        0.1722845796
 C          1.0103283539       -1.3641638276        0.0473115558
 H          0.9031652467       -2.0475076813       -0.7805855289
 N          3.2196754372       -0.7905932060       -0.7484433726
 S          4.0878752025        0.5397693442       -1.2825778234
 O          3.3019828935        1.7515149552       -1.2757548952
 O          4.6398820222        0.1366188333       -2.5580156888
 C          5.4159122840        0.6662510265       -0.1001279482
 C          5.6805965966        1.8747193496        0.5136548893
 C          6.7270256269        1.9525650105        1.4197543906
 C          7.4873865032        0.8263623324        1.6940748356
 C          7.2109733528       -0.3795224771        1.0671019057
 C          6.1672682373       -0.4633140409        0.1596300811
 H          5.9225363254       -1.3797827698       -0.3505495430
 H          7.8045200840       -1.2533376405        1.2827043008
 H          8.3002695362        0.8890778309        2.4001738022
 H          6.9434008575        2.8896898860        1.9071460211
 H          5.0597359213        2.7234034171        0.2733209330
 H          2.9798350125       -1.3963737494       -1.5198706974
 H          3.2261454588        0.8508311835        1.3197836342
 H          1.3768842709        1.1444150533        2.9319764158
 H         -0.7109894886       -0.1433723431        2.6688097539
 H         -1.7422162726       -2.1358441018        1.7917453835
 C         -1.1638262148       -3.3067073286        0.1270827483
 C         -2.3528747911       -4.0529974507       -0.3976335442
 C         -1.3143977837       -3.5365246213       -1.3456591305
 H         -0.6548465415       -4.2497249969       -1.8190907545
 H         -1.5585724374       -2.6914488180       -1.9701687555
 H         -2.4126901066       -5.1171178202       -0.2264949989
 H         -3.3079817783       -3.5492243180       -0.3651934016
 H         -0.4067617588       -3.8992336100        0.6321839776
