  62
        -98.93890010
 C         -1.1815676878       -1.3005478293        0.7050366010
 C         -2.5670955800       -1.5382784366        0.4935503121
 C         -3.4490540807       -0.3683362883        0.5924774527
 C         -2.9388284678        0.8184229083        0.9636833668
 C         -3.6993395188        2.1100003718        1.0977824058
 C         -3.8878670114        2.8611409301       -0.2274341929
 C         -4.9006856203        2.2403183884       -1.1904420464
 H         -5.8385472504        2.0590749212       -0.6646968614
 H         -5.1008286634        2.9812754002       -1.9671400741
 C         -4.4245799001        0.9430952403       -1.8596488407
 H         -3.3400382183        0.8556716206       -1.7580500720
 H         -4.6415816274        0.9840216525       -2.9296654910
 C         -5.0744965286       -0.3284587198       -1.3136155094
 H         -4.6354469116       -1.1860389044       -1.8302157792
 H         -6.1446265469       -0.3159603692       -1.5322875809
 C         -4.8844097969       -0.5354388374        0.1945645339
 H         -5.5168682392        0.1551749499        0.7520990344
 H         -5.1796082663       -1.5584268595        0.4403540681
 H         -2.9203051497        2.9404237969       -0.7286156916
 H         -4.2224991393        3.8725301570        0.0146484185
 H         -3.1222737388        2.7414109724        1.7763217303
 H         -4.6738192824        1.9171436145        1.5474304485
 O         -1.6338269357        0.9695309807        1.3043830625
 C         -0.7224513817       -0.0772069149        1.1960974294
 O          0.4160110745        0.2270692736        1.5957048370
 O         -3.0480661231       -2.6726618029        0.2436552930
 C         -0.2357179355       -2.4664396545        0.4443285072
 C          1.2035206575       -2.1625836603        0.7634394713
 C          1.8259787802       -2.7100210474        1.8769596482
 C          3.1576022303       -2.4415977190        2.1420948542
 C          3.8873040678       -1.6168740676        1.3075908436
 C          3.2731244915       -1.0679662212        0.1864379987
 C          1.9494305387       -1.3607846383       -0.0901141298
 H          1.4923200757       -0.9228009670       -0.9625648226
 N          3.9911563820       -0.2333637625       -0.6839537088
 S          3.2595279698        1.0304962102       -1.4849422777
 O          2.3947486066        0.5286642163       -2.5260290494
 O          4.3728668585        1.8386864605       -1.9421776389
 C          2.3186890217        1.9774725594       -0.3034613946
 C          2.9044696850        2.3234197903        0.8961979796
 C          2.1948336516        3.1137425348        1.7839199975
 C          0.9231607943        3.5528093587        1.4543757609
 C          0.3515484328        3.2027961456        0.2428405472
 C          1.0528356273        2.4037830766       -0.6442377745
 H          0.6372585115        2.0924162243       -1.5906371588
 H         -0.6429936310        3.5382683336       -0.0063642645
 H          0.3687547342        4.1637959159        2.1494611448
 H          2.6322472731        3.3791192360        2.7331648444
 H          3.8967868639        1.9720095486        1.1282620614
 H          4.9199056940        0.0122523127       -0.3750702024
 H          4.9222329638       -1.3948644570        1.5194742659
 H          3.6285464446       -2.8708164460        3.0135779105
 H          1.2563182087       -3.3386213256        2.5467750498
 H         -0.5703653965       -3.3073690156        1.0704042482
 C         -0.3345022007       -2.9037131220       -1.0152365564
 C          0.4698936248       -4.0836488500       -1.4795080046
 C         -1.0213100061       -4.1758034054       -1.4003765318
 H         -1.5935298141       -4.1868572797       -2.3158164044
 H         -1.4658219982       -4.7606659934       -0.6105620841
 H          0.9367709077       -4.0355561514       -2.4515880937
 H          1.0540030802       -4.6083578623       -0.7386341169
 H         -0.4286364364       -2.0724574025       -1.7074114735
