  62
        -98.92979635
 C          2.3334969199        0.8257200799        0.1855700009
 C          3.1569980801        0.3314130805       -0.8565492092
 C          4.5901535401        0.1962900005       -0.5387549991
 C          5.0354945799        0.5579157100        0.6774012211
 C          6.4467717699        0.4130096800        1.1720757712
 C          6.7245582900       -1.0539127201        1.5578514106
 C          7.7668963602       -1.7493740696        0.6818068104
 H          8.7607840401       -1.3977394396        0.9664548506
 H          7.7194878003       -2.8177481297        0.9030890399
 C          7.6128325704       -1.5452334990       -0.8284489395
 H          8.0162134703       -0.5715583888       -1.1103883291
 H          8.2396699005       -2.2946735487       -1.3163339898
 C          6.1856893704       -1.6627945289       -1.3790454897
 H          6.2331672106       -2.1826267385       -2.3381174900
 H          5.5677541104       -2.2716645593       -0.7186990901
 C          5.4845752603       -0.3153079889       -1.6344907992
 H          6.2314416302        0.4446391813       -1.8800953788
 H          4.8274599704       -0.4220568786       -2.5027701693
 H          7.0636237799       -1.0994455305        2.5938582806
 H          5.7822345301       -1.6038579802        1.5121791502
 H          7.1412449199        0.7453693404        0.4037066914
 H          6.5520993697        1.0609710296        2.0424383515
 O          4.2164993898        1.0423792595        1.6473877112
 C          2.8585613298        1.1880271194        1.4280509512
 O          2.2311561096        1.6511569089        2.4030243013
 O          2.7353967103        0.0078558809       -1.9979953494
 C          0.8443173399        1.0443186798        0.0109815709
 C          0.0143963201       -0.2200665903        0.0488080702
 C          0.5446326703       -1.4892025302       -0.1393098003
 C         -0.2785594696       -2.6024102203       -0.1265482408
 C         -1.6412098796       -2.4738134605        0.0652238491
 C         -2.1825335598       -1.2085142107        0.2683116296
 C         -1.3525093599       -0.0985683406        0.2657060602
 H         -1.7875288201        0.8737894593        0.4306289105
 N         -3.5570550598       -1.0464672710        0.5067603095
 S         -4.3222127000        0.3485196592       -0.0604126100
 O         -3.9799928799        0.5764126998       -1.4457202798
 O         -4.0510246602        1.4309230288        0.8520197105
 C         -6.0302095899       -0.1430476711        0.0831896996
 C         -6.7092087997       -0.5803178907       -1.0383522306
 C         -8.0300092597       -0.9803826209       -0.9087250809
 C         -8.6448896098       -0.9393147416        0.3335411590
 C         -7.9506452000       -0.4970544320        1.4500921993
 C         -6.6305437501       -0.0940534917        1.3273491496
 H         -6.0551238802        0.2663978480        2.1640631698
 H         -8.4332163101       -0.4635093824        2.4135546193
 H         -9.6727996398       -1.2507529917        0.4318620188
 H         -8.5734762896       -1.3208039906       -1.7753398911
 H         -6.1930376896       -0.5867618002       -1.9849391606
 H         -4.0920091997       -1.8771868010        0.2925175991
 H         -2.2795236495       -3.3441740406        0.0666334386
 H          0.1493154506       -3.5820655802       -0.2781249712
 H          1.6040670303       -1.6044474500       -0.3083351102
 H          0.5315099698        1.6639707594        0.8643236411
 C          0.5355534200        1.8075789303       -1.2672740788
 C         -0.5816224602        2.8032678702       -1.3113059785
 C          0.8413521098        3.2722900904       -1.3437337481
 H          1.2392408598        3.6691255808       -2.2653421879
 H          1.2403315896        3.7421885200       -0.4559227379
 H         -1.1736010001        2.8687115205       -2.2117275785
 H         -1.1502052803        2.9760741497       -0.4092924185
 H          0.7174671901        1.2192006107       -2.1583788791
