  62
        -98.94083329
 C         -2.3221118085       -0.7980441480       -0.1311540649
 C         -3.5999389492       -1.1794227002        0.3433121005
 C         -4.7424172944       -0.4686910994       -0.2452369057
 C         -4.5196850093        0.4650388101       -1.1884095691
 C         -5.5860992865        1.3006908316       -1.8342734800
 C         -5.8066364293        2.6112801207       -1.0658411466
 C         -5.9835248395        2.4214962052        0.4406715828
 H         -5.0480099501        2.0487496762        0.8641299033
 H         -6.1612442345        3.4081299587        0.8739358496
 C         -7.1288846743        1.4771502991        0.8316380091
 H         -7.6951286920        1.9325632521        1.6467705134
 H         -7.8122634070        1.3560021481       -0.0095013912
 C         -6.6769421755        0.0993555401        1.3192018324
 H         -5.9216160526        0.2165615113        2.1003768612
 H         -7.5380252458       -0.4012030699        1.7697581265
 C         -6.1150595360       -0.8384090767        0.2431109866
 H         -6.0159210679       -1.8328542124        0.6878747555
 H         -6.8162244009       -0.9035463888       -0.5911827485
 H         -4.9414853935        3.2578894855       -1.2301411223
 H         -6.6864157386        3.1088857393       -1.4778064321
 H         -5.2688368707        1.5352369304       -2.8517103260
 H         -6.5120691210        0.7304250254       -1.8747986196
 O         -3.2782030221        0.7917392603       -1.6320348076
 C         -2.1477867972        0.1798000610       -1.1099239874
 O         -1.0738323750        0.5870047838       -1.5936622060
 O         -3.7750513606       -2.0675393141        1.2205154853
 C         -1.0942044150       -1.4862233183        0.4354719461
 C         -0.1465719301       -0.4716571325        1.0258118459
 C         -0.6470732260        0.4856158708        1.9051624294
 C          0.1841030302        1.4389844218        2.4589649886
 C          1.5327418816        1.4578108092        2.1496148996
 C          2.0474167400        0.4955662225        1.2891994104
 C          1.2093208209       -0.4651969354        0.7392361924
 H          1.6319374239       -1.1947494890        0.0701206268
 N          3.4257607446        0.4643718489        1.0124462455
 S          3.9924240720       -0.0216208068       -0.5005706310
 O          3.4160950167        0.7915557043       -1.5480705755
 O          3.8297174585       -1.4474906838       -0.6287307503
 C          5.7229674536        0.3643817044       -0.3029575800
 C          6.5134608017       -0.5057354776        0.4240391436
 C          7.8523941307       -0.1999881703        0.6079554559
 C          8.3763898942        0.9638544579        0.0647917329
 C          7.5718282369        1.8258246101       -0.6649535817
 C          6.2310592657        1.5267363555       -0.8509112192
 H          5.5692872170        2.1625144960       -1.4172031306
 H          7.9824635704        2.7278538652       -1.0892799998
 H          9.4190826622        1.1991987254        0.2085761814
 H          8.4818627596       -0.8689532860        1.1722508991
 H          6.0644728310       -1.4020605784        0.8186803735
 H          3.8931191220        1.3128396519        1.3035201958
 H          2.1814085613        2.2090583091        2.5740580240
 H         -0.2210886047        2.1799729814        3.1318253811
 H         -1.7030030776        0.4758570162        2.1401754101
 H         -1.4665401689       -2.1248132828        1.2511461160
 C         -0.4543774766       -2.3685809819       -0.6155390642
 C          0.3065087384       -3.5946101915       -0.2112481995
 C         -1.0290723738       -3.7271931964       -0.8774215284
 H         -1.0673948955       -4.0827677564       -1.8961714596
 H         -1.8732080534       -4.0305999731       -0.2754386386
 H          1.1941557330       -3.8538111679       -0.7689322280
 H          0.3703580392       -3.8153410161        0.8435947063
 H         -0.0943828734       -1.8044484440       -1.4702624238
