  62
        -98.93493419
 C         -1.9322145301       -0.3657470084        0.2274326999
 C         -3.0502066804       -0.9578627977        0.8686925801
 C         -4.3098633703       -0.1955128976        0.8527578091
 C         -4.3236522700        1.0250790720        0.2909742981
 C         -5.5031592498        1.9425254420        0.1255284870
 C         -6.1575538795        1.7399857309       -1.2516082330
 C         -7.2131420996        0.6362120209       -1.3068414623
 H         -8.1028078197        0.9639943115       -0.7649847228
 H         -7.4962335094        0.5096609001       -2.3544121223
 C         -6.7735306499       -0.7202321686       -0.7490511111
 H         -5.7599623799       -0.9455691590       -1.0858148606
 H         -7.4304406499       -1.4835141589       -1.1707508606
 C         -6.8457290403       -0.7958637373        0.7834400190
 H         -7.4007947705       -1.6900890570        1.0742746196
 H         -7.4162424503        0.0556311731        1.1542103281
 C         -5.4904759705       -0.8619080669        1.5047514894
 H         -5.6051220907       -0.4575287060        2.5159700190
 H         -5.1898097207       -1.9078949468        1.6204225903
 H         -5.3631875593        1.5270694501       -1.9718247126
 H         -6.6306492693        2.6758027207       -1.5560811339
 H         -5.1154328097        2.9619699920        0.1805902662
 H         -6.2208477600        1.7964531527        0.9274106869
 O         -3.2172668498        1.5811462113       -0.2699418521
 C         -2.0016215098        0.9128793911       -0.3285708312
 O         -1.1033546796        1.5655354605       -0.8905472716
 O         -3.0001682807       -2.0854887472        1.4289927111
 C         -0.6349538502       -1.1568592486        0.2308835909
 C          0.4976087097       -0.3021084483        0.7364314504
 C          0.6469690494       -0.1048676771        2.1054671203
 C          1.6635434694        0.6919576932        2.5992394999
 C          2.5456595497        1.3179050223        1.7364152796
 C          2.3988000800        1.1341262912        0.3680362397
 C          1.3927777200        0.3140468209       -0.1243985599
 H          1.2796973703        0.1900276700       -1.1900705698
 N          3.2839103903        1.7820353303       -0.5167732706
 S          4.9152553502        1.4556025403       -0.3469712499
 O          5.4039295600        2.0723685412        0.8601322097
 O          5.5293986906        1.8886562891       -1.5814739502
 C          4.9926367700       -0.3198962596       -0.2029069684
 C          4.9802972396       -0.9032614586        1.0479341121
 C          4.9473676894       -2.2856664885        1.1404081533
 C          4.9257457196       -3.0556662294       -0.0121089461
 C          4.9423359100       -2.4542234505       -1.2615121266
 C          4.9696546102       -1.0727195706       -1.3603130978
 H          4.9879060005       -0.5655425014       -2.3117265582
 H          4.9286984501       -3.0560017713       -2.1561505861
 H          4.8971687494       -4.1313074194        0.0633987248
 H          4.9348980491       -2.7561643676        2.1103133237
 H          5.0026085294       -0.2702313078        1.9193798516
 H          3.0060327506        1.7021077695       -1.4841192706
 H          3.3409152097        1.9488919925        2.0997729692
 H          1.7668359591        0.8336430341        3.6644460898
 H         -0.0508830908       -0.5800518964        2.7810407905
 H         -0.8118238305       -1.9565547079        0.9678432315
 C         -0.3075278400       -1.8489193397       -1.0843386285
 C         -1.3949642299       -2.4696023503       -1.9079321382
 C         -0.6514180996       -1.2765746708       -2.4254546790
 H          0.0482414906       -1.4233152416       -3.2357714787
 H         -1.1584744494       -0.3249839708       -2.4572176300
 H         -1.2137890399       -3.4305100207       -2.3650418273
 H         -2.4121505799       -2.3297602399       -1.5718764786
 H          0.6249508399       -2.4017920998       -1.0204390177
