  62
        -98.93945955
 C         -1.9372763993       -1.3784030875        0.2156398791
 C         -1.7577393854        0.0156897083        0.0657603820
 C         -2.9317100605        0.8580780049        0.3534771214
 C         -4.0849631668        0.2778471982        0.7276405574
 C         -5.3904152821        0.9364806401        1.0979297145
 C         -5.8594583693        2.1148312789        0.2337214586
 C         -5.4779062573        2.0233509426       -1.2511166753
 H         -5.1007176667        1.0252372115       -1.4807243360
 H         -6.3717415087        2.1801221601       -1.8578312830
 C         -4.4394479348        3.0686295819       -1.6656924998
 H         -4.4866671505        3.1998749245       -2.7494393322
 H         -4.7043575556        4.0249719710       -1.2094317496
 C         -2.9912697354        2.7300197216       -1.3136818620
 H         -2.6390853011        1.9082507511       -1.9432823740
 H         -2.3752867274        3.6006722406       -1.5515311970
 C         -2.7422949621        2.3338629637        0.1505360684
 H         -3.3612517995        2.9170611177        0.8278558919
 H         -1.6915635643        2.5332792213        0.3774530777
 H         -6.9456540055        2.1618392948        0.3281875824
 H         -5.4694175565        3.0454420153        0.6433487024
 H         -6.1327965023        0.1356864387        1.0584877512
 H         -5.3239402880        1.2614423891        2.1403486868
 O         -4.2120172166       -1.0738575572        0.8576960552
 C         -3.1542327160       -1.9308860134        0.6097580222
 O         -3.4168085330       -3.1390041426        0.7782717308
 O         -0.6669431087        0.5386663474       -0.2787789646
 C         -0.7820019382       -2.3217652701       -0.0650955288
 C          0.4147729192       -1.9343715584        0.7685640534
 C          0.2512901862       -1.7746680128        2.1430656112
 C          1.3169846532       -1.4182244186        2.9454900734
 C          2.5688947765       -1.2048931373        2.3938381706
 C          2.7453345094       -1.3700249715        1.0262808692
 C          1.6747467076       -1.7456169815        0.2241737761
 H          1.8437283463       -1.8628858198       -0.8326113383
 N          4.0114150159       -1.1898787211        0.4389775650
 S          4.2110573540       -0.1345494872       -0.8452119743
 O          3.3813372603       -0.5386261077       -1.9496696328
 O          5.6376308012       -0.1265079772       -1.0878485124
 C          3.7133963449        1.4605384632       -0.2186874818
 C          2.3717339039        1.7525821005       -0.0757913003
 C          2.0149819840        2.9803327133        0.4612295283
 C          2.9908168209        3.8871419600        0.8430654933
 C          4.3340378609        3.5760015483        0.6930246334
 C          4.7001323091        2.3504200981        0.1619959372
 H          5.7309904034        2.0667956939        0.0231677277
 H          5.0934515671        4.2818786156        0.9887568264
 H          2.7023951687        4.8400319314        1.2583921958
 H          0.9675693807        3.2103796687        0.5754733478
 H          1.6168173738        1.0425241102       -0.3743653732
 H          4.7529208047       -1.0395877635        1.1089171023
 H          3.4018813857       -0.9183069060        3.0178694845
 H          1.1722217524       -1.2970647146        4.0084436756
 H         -0.7297049763       -1.9317103724        2.5716325349
 H         -1.1167868646       -3.3189706303        0.2567658894
 C         -0.4957769202       -2.3636111316       -1.5519098246
 C          0.0907932060       -3.5944710896       -2.1725072540
 C         -1.3408267932       -3.2340521049       -2.4303723664
 H         -1.6141916171       -2.8695383170       -3.4093636351
 H         -2.1118564346       -3.8203403596       -1.9513373311
 H          0.8050309251       -3.4747810920       -2.9735158218
 H          0.2928810551       -4.4336538527       -1.5240311865
 H         -0.1910999151       -1.4017529413       -1.9501006082
