  62
        -98.93880158
 C         -1.6417541016       -1.5147264161        0.3233925703
 C         -1.2905656749       -0.4071391399       -0.4838452549
 C         -1.9340851934        0.8731674041       -0.1505869424
 C         -2.7510673699        0.9403114493        0.9148692574
 C         -3.5221962980        2.1532555304        1.3522947060
 C         -4.7471388644        2.3650903898        0.4397012234
 C         -4.6950482727        3.6430786701       -0.3976548100
 H         -5.4884325888        3.5771402976       -1.1451302724
 H         -4.9172210150        4.4973592299        0.2451772669
 C         -3.3649768477        3.9208212650       -1.1041364579
 H         -3.5562256561        4.6961184529       -1.8490546715
 H         -2.6518262797        4.3407656875       -0.3930549219
 C         -2.7132740467        2.7184587866       -1.7986786558
 H         -3.4623096529        1.9662180538       -2.0467981891
 H         -2.2831376131        3.0637098592       -2.7408185756
 C         -1.5716642395        2.0575759216       -1.0036490510
 H         -0.8314284681        1.6747750272       -1.7123754863
 H         -1.0685249904        2.8054909884       -0.3832677762
 H         -4.8358348065        1.4990349931       -0.2194588986
 H         -5.6525798860        2.3908128298        1.0478907984
 H         -3.8383887754        1.9806541163        2.3815567300
 H         -2.8703351011        3.0242569086        1.3331724882
 O         -3.0306871022       -0.1349513995        1.6974000872
 C         -2.4715767171       -1.3745818792        1.4366709217
 O         -2.7842064779       -2.2609761541        2.2583062977
 O         -0.4765691441       -0.4726254217       -1.4423189479
 C         -1.0100811498       -2.8807422454        0.1095909126
 C          0.4728070759       -2.7082024259       -0.1154143086
 C          1.1714293894       -3.2544412252       -1.1838702864
 C          2.5290291207       -3.0217319851       -1.3258938000
 C          3.2099701264       -2.2223260344       -0.4265046863
 C          2.5185404520       -1.6725955938        0.6471400570
 C          1.1720434518       -1.9455363106        0.8129806182
 H          0.6481408336       -1.5113547123        1.6530781263
 N          3.1532682714       -0.8238054396        1.5800039908
 S          2.6375266411        0.7713215183        1.6279183893
 O          3.4428875728        1.3959509480        2.6565110569
 O          1.2103473205        0.8249992878        1.8146657663
 C          3.1024959127        1.4396726592        0.0396995818
 C          2.3498715113        1.1257523212       -1.0741613562
 C          2.7621737935        1.6029404210       -2.3095808816
 C          3.9085446481        2.3755120189       -2.4109097948
 C          4.6538165234        2.6790317969       -1.2812611605
 C          4.2514563935        2.2033876839       -0.0440894850
 H          4.7957348944        2.4145229017        0.8623271279
 H          5.5448047824        3.2808823301       -1.3604950338
 H          4.2217912173        2.7427559456       -3.3755140509
 H          2.1788538301        1.3605272201       -3.1834734292
 H          1.4585887276        0.5250937171       -0.9747305271
 H          4.1626873504       -0.8371287477        1.5178379849
 H          4.2623731293       -2.0172064307       -0.5538947201
 H          3.0587005195       -3.4511679089       -2.1625144921
 H          0.6503659599       -3.8435156177       -1.9204662881
 H         -1.1435865557       -3.4070212024        1.0699360418
 C         -1.6943542512       -3.7297231723       -0.9514863435
 C         -3.1354744734       -3.5112918449       -1.3016441172
 C         -2.0646016217       -3.1791909762       -2.2946237395
 H         -1.9542680865       -3.8181284473       -3.1585373453
 H         -1.8412704713       -2.1416513461       -2.4842088249
 H         -3.7558349731       -4.3771781024       -1.4786176951
 H         -3.6516349206       -2.6988638244       -0.8102209568
 H         -1.3637368575       -4.7632697982       -0.9198577744
