  62
        -98.94590932
 C          1.2941954028        1.4213652779        0.6236141745
 C          2.3712610112        1.3150789140       -0.2909387179
 C          3.3675174899        0.2734747559        0.0077745691
 C          3.2127380096       -0.5048719324        1.0930464575
 C          4.1297514487       -1.6269873436        1.4849446355
 C          3.6898724053       -2.9651215190        0.8737337528
 C          3.3805620650       -2.8927615094       -0.6214002693
 H          2.5107491257       -2.2509310728       -0.7780592290
 H          3.1053813890       -3.8991101421       -0.9439501319
 C          4.5436649471       -2.3853860211       -1.4849033888
 H          4.6314149186       -3.0251086044       -2.3654994029
 H          5.4801555099       -2.4667648980       -0.9317008642
 C          4.3781613565       -0.9515772001       -1.9910711821
 H          3.3992499299       -0.8390505151       -2.4636062675
 H          5.1352623690       -0.7729714675       -2.7592423283
 C          4.5323890252        0.1485844213       -0.9337006432
 H          4.5968016133        1.1063930356       -1.4580111672
 H          5.4609198024       -0.0013625586       -0.3789451765
 H          2.7940855362       -3.3093170870        1.3958302971
 H          4.4806882948       -3.6970902064        1.0480072981
 H          4.1189635191       -1.7134844878        2.5730054358
 H          5.1410083661       -1.3862049462        1.1620319060
 O          2.1673984712       -0.3727981960        1.9501897491
 C          1.1934633311        0.5888876436        1.7414278345
 O          0.3012966838        0.6051551520        2.6143452377
 O          2.5202650388        2.0457196699       -1.3040958542
 C          0.1730458210        2.4367306264        0.4548555351
 C         -0.7894940051        1.9580795545       -0.6063152711
 C         -0.5136469738        2.0794630680       -1.9643420952
 C         -1.4119643608        1.6080363659       -2.9040189895
 C         -2.5910834436        0.9981748474       -2.5134026801
 C         -2.8741801576        0.8672150723       -1.1591254781
 C         -1.9777013448        1.3539242979       -0.2177626181
 H         -2.2138945553        1.2545821884        0.8311606096
 N         -4.0667994017        0.2594414245       -0.7331810557
 S         -4.0397556750       -0.8110635979        0.5523418805
 O         -5.2627568447       -1.5709513540        0.4060200005
 O         -3.8870994155       -0.0946031673        1.7918235062
 C         -2.6364981160       -1.8640444388        0.2358874707
 C         -2.7611324426       -2.8139576908       -0.7604191356
 C         -1.6746219761       -3.6163746242       -1.0647720824
 C         -0.4825889162       -3.4532766889       -0.3744700900
 C         -0.3759707796       -2.4979690182        0.6230498751
 C         -1.4601766421       -1.6921563184        0.9346174656
 H         -1.3924766465       -0.9417730718        1.7070370688
 H          0.5459135232       -2.3617090555        1.1666055058
 H          0.3671479022       -4.0741124993       -0.6110705268
 H         -1.7566028718       -4.3636675298       -1.8374003763
 H         -3.7085497055       -2.9195300171       -1.2637698164
 H         -4.6453532529       -0.0909310504       -1.4831031703
 H         -3.2898611078        0.6289445988       -3.2484770639
 H         -1.1879075206        1.7101157660       -3.9549894199
 H          0.4185900851        2.5223831232       -2.2757106041
 H         -0.3673521111        2.4425042625        1.4114205504
 C          0.6786824155        3.8400301683        0.1857581187
 C         -0.2487993072        4.9957620257        0.4043991446
 C          0.9010839840        4.7695907805        1.3386914568
 H          1.7404280808        5.4476954228        1.2995241516
 H          0.6872101922        4.3980428200        2.3307875899
 H         -0.2014241932        5.8315248994       -0.2765882215
 H         -1.2435066042        4.7763365154        0.7633857626
 H          1.3766371899        3.9014755933       -0.6380768929
