  62
        -98.94575948
 C         -1.9981066728       -1.5132725226       -0.0639985828
 C         -1.7047217806       -0.2775170806       -0.6907625907
 C         -2.8217398201        0.6728448090       -0.7639067205
 C         -4.0371160517        0.3156468755       -0.3108590955
 C         -5.2791241881        1.1644160810       -0.3482304764
 C         -5.4083789491        2.1320339354        0.8361780504
 C         -4.4463045934        3.3204147960        0.8122571238
 H         -4.5207610585        3.8266234049       -0.1506205484
 H         -4.7862217459        4.0225131804        1.5762829566
 C         -2.9820807679        2.9542172636        1.0933818520
 H         -2.9362142345        1.9641366568        1.5528005863
 H         -2.5630852442        3.6591346490        1.8148914100
 C         -2.0741962019        2.9717098450       -0.1366425873
 H         -2.0024803700        3.9917915582       -0.5201475749
 H         -1.0762725857        2.6502963086        0.1717698719
 C         -2.5324783795        2.0511961631       -1.2754512622
 H         -3.4079294322        2.4688191626       -1.7720101771
 H         -1.7188603284        1.9697519532       -1.9998467816
 H         -5.2703657797        1.5699048505        1.7628537655
 H         -6.4304467958        2.5180557691        0.8319323069
 H         -5.3127954972        1.7247596536       -1.2828653504
 H         -6.1272387164        0.4766165076       -0.3243170850
 O         -4.2882904247       -0.9053956454        0.2343358124
 C         -3.2709497620       -1.8308144346        0.4072384313
 O         -3.6215019495       -2.8825062517        0.9809804901
 H          1.7589777453       -2.3940794282       -0.6476570134
 C          1.5570284977       -1.8788485411        0.2781934228
 C          0.2769185277       -1.8773826241        0.8066061429
 C          0.0545358720       -1.2054002150        2.0060521961
 C          1.0810932292       -0.5390456851        2.6462339584
 C          2.3547420030       -0.5256615030        2.1042151417
 C          2.5887361577       -1.1998479347        0.9144566890
 N          3.8787668891       -1.1864970361        0.3516846465
 S          4.6237972259        0.3015876098        0.1606355569
 O          5.6359078196        0.0843653748       -0.8493101944
 O          5.0999683606        0.7649760877        1.4401810008
 C          3.3574620877        1.3945251510       -0.4555758181
 C          2.8225374728        2.3637468873        0.3672584048
 C          1.8210114724        3.1822683761       -0.1289434557
 C          1.3716426490        3.0146273700       -1.4290569760
 C          1.9163424889        2.0332546275       -2.2412892574
 C          2.9178455181        1.2128867528       -1.7514093466
 H          3.3708578440        0.4457561520       -2.3589947678
 H          1.5580521429        1.9000846842       -3.2492365400
 H          0.5889230391        3.6506496767       -1.8114692114
 H          1.3914098639        3.9455180454        0.5005261310
 H          3.2016359697        2.4636576239        1.3712857597
 H          3.9483746503       -1.7208303272       -0.5025979296
 H          3.1664050043       -0.0019374316        2.5823438466
 H          0.8892314637       -0.0192439242        3.5728896468
 H         -0.9438431249       -1.2030316530        2.4232772876
 C         -0.8930795366       -2.5382408369        0.1202864165
 H         -1.2970351710       -3.3135307880        0.7868447298
 C         -0.5482763586       -3.1718740022       -1.2113510687
 C          0.0387115602       -4.5498615009       -1.2629893015
 C         -1.3759137473       -4.3201885488       -1.7012987083
 H         -1.6065338918       -4.3776018069       -2.7545714264
 H         -2.1761651562       -4.6622325468       -1.0612622051
 H          0.2021969385       -5.0591914763       -0.3252971858
 H          0.7776695512       -4.7707376002       -2.0187342195
 H         -0.2212319808       -2.4452588734       -1.9466765669
 O         -0.5771905360        0.0170623758       -1.1623753113
