  62
        -98.94594211
 C         -1.1309431635       -1.0465677911       -0.4800037219
 C         -2.1869977998       -1.2584961020        0.4435570354
 C         -2.9497426773       -0.0743727193        0.8553052812
 C         -2.5873217461        1.1323968124        0.3848025527
 C         -3.2917949026        2.4216754208        0.6922218843
 C         -4.3847580243        2.7205727529       -0.3434865257
 C         -5.3214908058        1.5418544956       -0.6075373343
 H         -6.0698374239        1.8760897473       -1.3292294302
 H         -4.7549668267        0.7362709779       -1.0799187177
 C         -6.0248933733        0.9981594921        0.6437896022
 H         -5.9792573035        1.7363499902        1.4453088746
 H         -7.0795758024        0.8369030357        0.4110901268
 C         -5.4726345914       -0.3348662898        1.1524026603
 H         -5.4287075540       -1.0515222405        0.3284929385
 H         -6.1709653021       -0.7313695464        1.8942790483
 C         -4.0894747333       -0.2774033596        1.8137157535
 H         -4.0819029527        0.4929154673        2.5882195712
 H         -3.9082288604       -1.2443657571        2.2925054630
 H         -4.9638659315        3.5781239042        0.0039950183
 H         -3.9035311050        2.9932419313       -1.2853683430
 H         -3.7253010278        2.3618546567        1.6888467377
 H         -2.5559000697        3.2276670097        0.6774722696
 O         -1.5552586268        1.3058217850       -0.4747954720
 C         -0.8033384440        0.2318158618       -0.9333282726
 O          0.0978772991        0.5678415603       -1.7260010579
 H          1.5276648511       -0.4128295798       -0.2338052232
 C          1.7177631812       -1.3589908213        0.2454924816
 C          0.8748504516       -2.4350878113        0.0109147075
 C          1.1563936710       -3.6487507652        0.6272004072
 C          2.2466535084       -3.7731669822        1.4700761001
 C          3.0566393904       -2.6842693430        1.7385835177
 C          2.7818336646       -1.4668522994        1.1269601347
 N          3.5603971393       -0.3272415013        1.3796117441
 S          2.7881080631        1.1556511121        1.5229564046
 O          3.6865560701        1.9454826664        2.3437601889
 O          1.4441738372        1.0113278928        2.0362762944
 C          2.7818699834        1.8510587052       -0.1131801147
 C          1.7718115975        2.7276649515       -0.4506271253
 C          1.7913664720        3.3246686307       -1.7002604439
 C          2.8164005419        3.0348810750       -2.5856206782
 C          3.8246070456        2.1519648572       -2.2308985105
 C          3.8132303754        1.5547335742       -0.9811826975
 H          4.5761930824        0.8583098641       -0.6749550892
 H          4.6168316730        1.9239239757       -2.9260001760
 H          2.8245245635        3.4953810585       -3.5611506242
 H          0.9993833654        4.0008925596       -1.9797608613
 H          0.9801999642        2.9088936662        0.2599241119
 H          4.2748636704       -0.4430979844        2.0840569260
 H          3.8887110003       -2.7707404981        2.4206961314
 H          2.4553497164       -4.7213879270        1.9417566640
 H          0.5036354568       -4.4923407907        0.4584894690
 C         -0.3320559905       -2.2741154918       -0.8840478067
 H         -0.9975507662       -3.1289269919       -0.6994074988
 C          0.0851841144       -2.2959165889       -2.3414836926
 C          0.3607200284       -3.6124221063       -3.0015993151
 C         -0.8638724313       -2.8308162805       -3.3698631073
 H         -0.9020337558       -2.3474831088       -4.3342600522
 H         -1.8220963159       -3.1917992321       -3.0250138910
 H          1.1678440616       -3.6695848979       -3.7152770606
 H          0.2306122944       -4.5071398092       -2.4120808145
 H          0.6997733115       -1.4506593052       -2.6217002541
 O         -2.4832229523       -2.3975782272        0.8981938515
