  62
        -98.93642332
 C         -2.4129041401       -0.8756548001        0.2538661775
 C         -3.6969524501       -0.9569355613        0.8517366973
 C         -4.8316154800       -0.5703535795        0.0067282180
 C         -4.6117221400       -0.1557011169       -1.2538345111
 C         -5.6645127399        0.2473985351       -2.2504450003
 C         -6.1276345899        1.7044262249       -2.1160656273
 C         -7.0052359900        1.9983749624       -0.8987713968
 H         -7.8322903800        1.2883350923       -0.8682605783
 H         -7.4339037400        2.9917623227       -1.0452974747
 C         -6.2561995500        1.9773705196        0.4410447532
 H         -6.5405515600        2.8515031184        1.0312838450
 H         -5.1814578300        2.0519148800        0.2585447134
 C         -6.5284819101        0.7427646878        1.3005829607
 H         -7.5782534301        0.7304185272        1.6020757906
 H         -5.9194186501        0.8138616060        2.2054608008
 C         -6.2019499901       -0.5898312708        0.6139011379
 H         -6.9509700300       -0.8153650492       -0.1449452625
 H         -6.2201223301       -1.3781672023        1.3704993463
 H         -6.6974351899        1.9491322967       -3.0154504269
 H         -5.2467380799        2.3503224648       -2.0949230860
 H         -6.5239797900       -0.4181489950       -2.1644343817
 H         -5.2208675799        0.1176830172       -3.2399403006
 O         -3.3649636100       -0.0720016559       -1.7859354409
 C         -2.2336020200       -0.4034701674       -1.0475742815
 O         -1.1677424600       -0.2378667761       -1.6679553212
 O         -3.8853923501       -1.3364843337        2.0382588565
 C         -1.2180023601       -1.2482083919        1.1136539268
 C         -0.1720863101       -0.1648830517        1.0391509290
 C         -0.4710693901        1.0854632772        1.5739108116
 C          0.4457025399        2.1171109973        1.5167916937
 C          1.6817249500        1.9253379785        0.9250623934
 C          1.9911329600        0.6826480096        0.3904131209
 C          1.0709190699       -0.3569333705        0.4588434087
 H          1.3157175199       -1.3118650696        0.0202421567
 N          3.2359847500        0.4869823009       -0.2335179795
 S          4.5986043700        1.1272685893        0.5288541519
 O          4.5641307699        0.8238975064        1.9426675312
 O          4.7026928300        2.5247752600        0.1903733747
 C          5.9025364500        0.2140788509       -0.2718368200
 C          6.3568243800        0.6450713034       -1.5038106591
 C          7.3551772900       -0.0764513253       -2.1386836105
 C          7.8789047500       -1.2102710065       -1.5352587528
 C          7.4132265500       -1.6299286791       -0.2982597937
 C          6.4140751499       -0.9136506804        0.3418222977
 H          6.0288704999       -1.1971152024        1.3082185271
 H          7.8246821699       -2.5098902800        0.1694595745
 H          8.6573327600       -1.7687296255       -2.0307245939
 H          7.7218167901        0.2476677367       -3.0992629998
 H          5.9265545101        1.5363717943       -1.9298000073
 H          3.3798137300       -0.4752052786       -0.5070640015
 H          2.4078630300        2.7206357586        0.8720299851
 H          0.1982507199        3.0817789864        1.9347591057
 H         -1.4394848701        1.2398402563        2.0311715519
 H         -1.6186577001       -1.2573514440        2.1412799067
 C         -0.6671678801       -2.6428380013        0.8585006739
 C         -1.5741620701       -3.7575466805        0.4327895516
 C         -0.5406082301       -3.2299026185       -0.5142921573
 H          0.3185210299       -3.8495877581       -0.7274296585
 H         -0.8627281900       -2.6286830768       -1.3496639461
 H         -1.4264078701       -4.7350345213        0.8666398096
 H         -2.6099751201       -3.5135291401        0.2470074121
 H          0.1101088799       -2.9020159328        1.5716160534
