  62
        -98.94740512
 C         -2.5344047992       -0.2224271338        0.0032177607
 C         -2.2745888526       -1.2576168176       -0.9247470020
 C         -1.7028147465       -2.4883049979       -0.3688915817
 C         -1.4659070855       -2.5751261742        0.9528457617
 C         -0.9044553237       -3.7695125235        1.6761630050
 C          0.6278112777       -3.8466123433        1.6427598142
 C          1.2225846283       -4.2762443269        0.3012469312
 H          2.2701261865       -4.5274264154        0.4785748975
 H          0.7227208505       -5.1809224595       -0.0473015458
 C          1.1554795794       -3.1949380857       -0.7855538307
 H          2.1169018407       -3.1304510406       -1.3017473100
 H          0.9901733756       -2.2185276832       -0.3234915494
 C          0.0895099913       -3.4223563059       -1.8577336966
 H          0.1033949545       -2.5568076185       -2.5259416170
 H          0.3426580407       -4.3085957362       -2.4451626440
 C         -1.3373291567       -3.5886682863       -1.3192534944
 H         -2.0284963562       -3.5385470592       -2.1647225104
 H         -1.4448176013       -4.5597231217       -0.8355214693
 H          0.9369278260       -4.5661271767        2.4047122214
 H          1.0297883837       -2.8680182860        1.9172659037
 H         -1.2234040505       -3.6783020920        2.7167116504
 H         -1.3275293372       -4.6845164806        1.2600936344
 O         -1.7458034023       -1.5633098253        1.8157050271
 C         -2.2394934156       -0.3516288546        1.3604838625
 O         -2.3946938412        0.5061858746        2.2519317168
 H         -0.4336956757        0.9198137626       -0.9329020927
 C         -0.6702946058        1.8579709691       -0.4515276239
 C         -1.9957641212        2.1663231473       -0.1723553197
 C         -2.2808822627        3.3888296103        0.4201223464
 C         -1.2543406122        4.2531346550        0.7626527408
 C          0.0670903702        3.9124586943        0.5418952491
 C          0.3603635273        2.7001690593       -0.0742894224
 N          1.6883683545        2.3150122560       -0.3313564192
 S          2.0340195557        0.6598572605       -0.3292507791
 O          1.7171803152        0.1315350627       -1.6321977826
 O          1.4173830357        0.0127461028        0.8069762390
 C          3.8050070179        0.7050728053       -0.1264490379
 C          4.3528849918        0.4922875454        1.1240464427
 C          5.7294413946        0.5598052181        1.2736857983
 C          6.5296644522        0.8410421851        0.1766296826
 C          5.9653252907        1.0510544716       -1.0730328532
 C          4.5901536187        0.9828916632       -1.2296703992
 H          4.1059388562        1.1278084050       -2.1812247351
 H          6.5907424160        1.2662566790       -1.9242590647
 H          7.6002341535        0.8939487137        0.2959301865
 H          6.1703340144        0.3929284328        2.2432256441
 H          3.6904632063        0.2700027204        1.9455443244
 H          2.3620618409        2.8426171943        0.2068660772
 H          0.8657201725        4.5731041992        0.8431587074
 H         -1.4873472644        5.1970624128        1.2318241297
 H         -3.3029394702        3.6570318158        0.6320246247
 C         -3.0331649339        1.1205975610       -0.5023478774
 H         -3.0941281758        1.0200390930       -1.5966505449
 C         -4.4102988287        1.4340245777        0.0411048451
 C         -5.3466299507        2.3099804468       -0.7352342882
 C         -5.6083984991        0.8383033214       -0.6331991353
 H         -6.4289974799        0.4990118091       -0.0192685682
 H         -5.4305547402        0.2231021630       -1.5032362261
 H         -4.9987680883        2.6973651930       -1.6808548649
 H         -5.9929745535        2.9824904148       -0.1918917605
 H         -4.4234742695        1.4967426399        1.1234144723
 O         -2.5152609523       -1.1584548731       -2.1599053103
