  62
        -98.94142567
 C         -1.6510537199       -1.1675627706        0.1699427198
 C         -1.6860732899        0.1906712193        0.5773413401
 C         -2.7838441300        1.0076785694        0.0464378104
 C         -3.6695236600        0.4434593496       -0.7947397496
 C         -4.8638446001        1.1396452597       -1.3787814094
 C         -6.1027682500        0.9584025794       -0.4910108193
 C         -5.8554535899        1.2737041690        0.9842079207
 H         -6.8048175799        1.1450518889        1.5086102308
 H         -5.1601381199        0.5377806590        1.3947523905
 C         -5.3121076299        2.6848689590        1.2485333310
 H         -5.4926782400        3.3203409392        0.3808350112
 H         -5.8595375799        3.1194316488        2.0876195212
 C         -3.8271842399        2.7340201290        1.6131301909
 H         -3.6252722898        2.0273717888        2.4222702307
 H         -3.6030680199        3.7351069389        1.9913419612
 C         -2.8463340200        2.4489046593        0.4686631708
 H         -3.0808498201        3.0903902595       -0.3835654590
 H         -1.8435511800        2.7002992092        0.8273305508
 H         -6.8986252501        1.5999880095       -0.8735674091
 H         -6.4360521600       -0.0790920106       -0.5682355496
 H         -4.6397022601        2.1981775897       -1.4952433791
 H         -5.0661122302        0.7091401899       -2.3609087495
 O         -3.5966609800       -0.8543232903       -1.1778568700
 C         -2.5902103100       -1.6967767904       -0.7166779703
 O         -2.6617114500       -2.8519959603       -1.1713199406
 H          1.9902629402       -1.1848689808        1.3652267595
 C          1.8991593801       -1.4379672405        0.3198652894
 C          0.6886084101       -1.8853877004       -0.1863909406
 C          0.5983735800       -2.1904074101       -1.5419670706
 C          1.7027287899       -2.0578524799       -2.3626477707
 C          2.9066589600       -1.5978061900       -1.8564042507
 C          3.0036531201       -1.2794323703       -0.5075523706
 N          4.2111770201       -0.8084530604        0.0363757494
 S          4.2033118601        0.5782202194        0.9787471998
 O          5.5983522101        0.9462341594        1.0843719298
 O          3.5186240502        0.3250073490        2.2190885198
 C          3.3394990400        1.7837343696       -0.0119185499
 C          4.0877901099        2.5383632398       -0.8961002297
 C          3.4430315798        3.4353852400       -1.7308477595
 C          2.0620835598        3.5538981700       -1.6778271093
 C          1.3269585899        2.7878323597       -0.7875359394
 C          1.9654484300        1.8930434495        0.0580439103
 H          1.3999423001        1.2989664993        0.7590348002
 H          0.2522518599        2.8706295997       -0.7393783093
 H          1.5555284897        4.2475387601       -2.3303234391
 H          4.0150147597        4.0355157502       -2.4200566993
 H          5.1592290399        2.4183838599       -0.8988550398
 H          4.9712484200       -0.7686200402       -0.6281436306
 H          3.7653078599       -1.4862831698       -2.5008999707
 H          1.6235674399       -2.3053946396       -3.4104229108
 H         -0.3453583100       -2.5337067100       -1.9390235507
 C         -0.5093749898       -2.0039935307        0.7206933795
 H         -0.2417229598       -1.5223722909        1.6753999696
 C         -0.8927889298       -3.4422695908        1.0358899192
 C         -0.3378307698       -4.6295130606        0.3133992388
 C          0.1010210103       -4.3382690709        1.7149725189
 H         -0.2385887696       -4.9809143612        2.5130966187
 H          1.0992547603       -3.9497373009        1.8554652289
 H         -1.0038435698       -5.4604801106        0.1381556587
 H          0.3676282402       -4.4627219904       -0.4848520912
 H         -1.9234018397       -3.5246093909        1.3652990792
 O         -0.8322474099        0.6955082191        1.3558375302
