  62
        -98.94075206
 C         -2.5984089004       -1.3090513600        0.2529848697
 C         -2.4193318805       -0.2341346102       -0.6540237106
 C         -3.5469909105        0.7075514597       -0.7617364609
 C         -4.6642096505        0.4947155798       -0.0448732309
 C         -5.8619712605        1.3983995498       -0.0263694712
 C         -5.7515830406        2.4396214101        1.0961657985
 C         -4.4079794607        3.1681323502        1.1328906784
 H         -4.4565254207        3.8993054004        1.9427015281
 H         -3.6206847506        2.4557761203        1.3907389286
 C         -4.0352641507        3.8796114898       -0.1752952318
 H         -4.9252933007        4.0130432096       -0.7913877119
 H         -3.6539824907        4.8746123699        0.0637148079
 C         -2.9528131806        3.1758477397       -0.9965290316
 H         -2.0902679906        2.9574051799       -0.3607643215
 H         -2.6145277406        3.8653132994       -1.7749966718
 C         -3.3796162505        1.8764483394       -1.6912864513
 H         -4.2921230605        2.0483907892       -2.2660613913
 H         -2.5822625705        1.5969217893       -2.3865678212
 H         -5.8917566106        1.9326494504        2.0535847987
 H         -6.5575086807        3.1654656100        0.9743720183
 H         -6.7507530905        0.7880208198        0.1423894190
 H         -5.9514643006        1.8951054395       -0.9904127313
 O         -4.8086845905       -0.5594312399        0.7974357394
 C         -3.7763713604       -1.4612670198        0.9913406197
 O         -4.0255156604       -2.3455230396        1.8344054500
 O         -1.3861913405       -0.0552607004       -1.3502592307
 C         -1.5035270904       -2.3264272998        0.5343483600
 C         -0.2012690204       -1.6057795197        0.7772023098
 C         -0.0211791005       -0.9228283793        1.9764986596
 C          1.1400283095       -0.2131914792        2.2164046394
 C          2.1434819995       -0.1650531894        1.2641818494
 C          1.9648466196       -0.8269682198        0.0574362396
 C          0.8045334096       -1.5555268899       -0.1732728302
 H          0.6680510996       -2.0506073402       -1.1220627400
 N          2.9726810196       -0.7849673600       -0.9184110204
 S          3.7884438695        0.6500731299       -1.2091727408
 O          2.9693886994        1.8117273100       -0.9541924111
 O          4.3121425395        0.5134535496       -2.5512837307
 C          5.1462740295        0.5974295603       -0.0557658807
 C          5.4071907694        1.6902836706        0.7473551589
 C          6.4752264894        1.6356726209        1.6294521490
 C          7.2604276995        0.4949164809        1.6920451693
 C          6.9875040495       -0.5932118093        0.8765071696
 C          5.9224294496       -0.5440568996       -0.0085010804
 H          5.6793251596       -1.3669827398       -0.6594957102
 H          7.6002014096       -1.4787643793        0.9284255499
 H          8.0896583995        0.4537543212        2.3804992994
 H          6.6887270794        2.4813332811        2.2633551887
 H          4.7654030394        2.5536643205        0.6692728987
 H          2.7160304596       -1.2349658403       -1.7851319102
 H          3.0452167195        0.3985225607        1.4392804493
 H          1.2661490195        0.3115044811        3.1514383093
 H         -0.8119873505       -0.9464320892        2.7143377796
 H         -1.8040206904       -2.8086047196        1.4784328501
 C         -1.3891112503       -3.4380015001       -0.4980942097
 C         -2.6198129003       -4.0252592304       -1.1203264595
 C         -1.6620734903       -3.2335044606       -1.9566459097
 H         -1.0475162702       -3.7647427407       -2.6694189196
 H         -1.9535356903       -2.2481572207       -2.2841020500
 H         -2.6666401702       -5.0945432804       -1.2609036092
 H         -3.5682650403       -3.5759168703       -0.8638629797
 H         -0.5968246903       -4.1367930000       -0.2462801895
