  62
        -98.94462514
 C          1.9851075508        0.7832063218        0.5443994814
 C          1.9828434393        0.0834066714       -0.6859631662
 C          2.1016195138       -1.3774692568       -0.5916604867
 C          2.1406441085       -1.9582011385        0.6210205347
 C          2.2929914893       -3.4319458543        0.8621073395
 C          3.7709871876       -3.8264471902        0.9934306103
 C          4.6578672393       -3.2776632285       -0.1241649321
 H          4.6884494340       -2.1882615739       -0.0503047361
 H          5.6712774355       -3.6420629117        0.0567803628
 C          4.2151909907       -3.6766088888       -1.5387186291
 H          3.5393058990       -4.5308093309       -1.4878397888
 H          5.0942458818       -3.9902597196       -2.1054795240
 C          3.5496747825       -2.5526983233       -2.3351464705
 H          4.1821058630       -1.6618684989       -2.3103275107
 H          3.4743458509       -2.8727313636       -3.3776794392
 C          2.1407480086       -2.1536114424       -1.8775881588
 H          1.7154662244       -1.4895573235       -2.6359886312
 H          1.5062901954       -3.0398799553       -1.8090536721
 H          3.8364137436       -4.9158001094        1.0119265258
 H          4.1457450983       -3.4462484576        1.9465113239
 H          1.7725371757       -3.6820296260        1.7884168469
 H          1.8295922287       -3.9755533559        0.0409108484
 O          2.0957067502       -1.2556523390        1.7831327044
 C          2.0169962455        0.1271421340        1.7731500942
 O          1.9876859108        0.6503030267        2.9075143743
 H         -0.5269282032        1.1480495971        0.9142316143
 C         -0.5885021356        1.9371246776        0.1774808504
 C          0.5496903383        2.6672008590       -0.1414953166
 C          0.4429146643        3.6890442804       -1.0754677070
 C         -0.7680542180        3.9424368655       -1.6969796221
 C         -1.8863659089        3.1818343468       -1.4115868540
 C         -1.7940475900        2.1703786452       -0.4609295464
 N         -2.9162292639        1.3938684823       -0.1214341699
 S         -2.6737162182       -0.2058754873        0.3597379514
 O         -2.3262567611       -0.2205644676        1.7599832592
 O         -1.7616523601       -0.8776219650       -0.5384667756
 C         -4.3280034464       -0.8405949295        0.1533537983
 C         -4.6396340860       -1.5823063389       -0.9701486682
 C         -5.9380500137       -2.0404066989       -1.1321287068
 C         -6.8978921166       -1.7473749277       -0.1751958354
 C         -6.5699767652       -1.0017689900        0.9476694483
 C         -5.2736461151       -0.5420719403        1.1164460508
 H         -4.9682914807        0.0321664467        1.9755519471
 H         -7.3178685372       -0.7779087968        1.6910137799
 H         -7.9073599254       -2.1044952819       -0.3039635753
 H         -6.1946143797       -2.6226785612       -2.0023647280
 H         -3.8577191065       -1.7894672010       -1.6831958140
 H         -3.6632217037        1.4670290727       -0.7989853035
 H         -2.8227416918        3.3661596881       -1.9156149738
 H         -0.8364922792        4.7334021232       -2.4283767862
 H          1.3100855105        4.2769336520       -1.3278932421
 C          1.8393647666        2.2946084045        0.5502432848
 H          1.7599159651        2.5894590699        1.6075130212
 C          3.0636790597        2.9507332536       -0.0529664665
 C          3.4902462324        4.3145154490        0.3980632764
 C          4.2885047252        3.1102114323        0.7949248581
 H          5.2550244351        2.9559530902        0.3392762134
 H          4.2282965004        2.7674196512        1.8179795193
 H          3.9138237889        4.9896231255       -0.3300550779
 H          2.8947871603        4.7983132792        1.1574947200
 H          3.2057651268        2.6837819535       -1.0938622587
 O          1.8939593063        0.6509156764       -1.8067986783
