  62
        -98.93648454
 C         -1.5467321415       -0.5896409671       -0.8579113696
 C         -2.9022901195       -0.9600454615       -1.0622733296
 C         -3.9187845416        0.0331176873       -0.6961365249
 C         -3.5243000053        1.2203090375       -0.2020011093
 C         -4.4486516981        2.3086094752        0.2599869071
 C         -4.7640856796        2.1718089219        1.7559563247
 C         -5.1920181226        0.7639154235        2.1702087665
 H         -4.3486078826        0.0818279725        2.0399798490
 H         -5.4186829605        0.7935064168        3.2382365701
 C         -6.4062939712        0.2186513873        1.4054803586
 H         -7.0905248596       -0.2447577388        2.1194330662
 H         -6.9435890480        1.0393398297        0.9287355389
 C         -6.0712575468       -0.8437702089        0.3568034148
 H         -7.0058700771       -1.3129614503        0.0377444884
 H         -5.4526040082       -1.6230038646        0.8092594352
 C         -5.3605256651       -0.3364167172       -0.9043366792
 H         -5.9163082767        0.5031924393       -1.3269406666
 H         -5.3595795877       -1.1503742994       -1.6351628115
 H         -5.5527522076        2.8826752540        2.0091668582
 H         -3.8701042710        2.4382318347        2.3242436791
 H         -3.9618216395        3.2696349692        0.0865686803
 H         -5.3679308929        2.2677767852       -0.3210822482
 O         -2.2217467163        1.5450554495       -0.0247068460
 C         -1.1957717195        0.6586982415       -0.3390883606
 O         -0.0651420380        1.1184710914       -0.1071073131
 O         -3.2477163019       -2.0776051941       -1.5343643057
 C         -0.4963967616       -1.6285790733       -1.2373367582
 C          0.3788339889       -1.9662586375       -0.0582035052
 C         -0.0002321342       -3.0454009408        0.7401654110
 C          0.7239435610       -3.3938222555        1.8637533012
 C          1.8587331628       -2.6832876825        2.2122910687
 C          2.2447911339       -1.6024514242        1.4302558955
 C          1.5047090518       -1.2457680137        0.3104569104
 H          1.8073230366       -0.3784464647       -0.2458632611
 N          3.3718969146       -0.8415528367        1.7669946956
 S          4.3377525780       -0.1940822913        0.5677788516
 O          4.4091093410       -1.0705004039       -0.5789554446
 O          5.5982320190        0.0731454339        1.2308391629
 C          3.5809348668        1.3551606413        0.1337915884
 C          3.0699932184        2.1493382779        1.1397501708
 C          2.5090467713        3.3703179634        0.8063128053
 C          2.4745098423        3.7770628688       -0.5181178473
 C          2.9976246306        2.9704387301       -1.5155535403
 C          3.5578293661        1.7457987329       -1.1894338723
 H          3.9584566180        1.0795845842       -1.9373841804
 H          2.9623323158        3.2841889990       -2.5468228266
 H          2.0296816256        4.7255844722       -0.7756358127
 H          2.0920647940        3.9973181871        1.5780525215
 H          3.1049345119        1.7981145659        2.1577203799
 H          3.9075253444       -1.1800937253        2.5522704116
 H          2.4351610549       -2.9559099722        3.0833780225
 H          0.4098068166       -4.2315209920        2.4679759285
 H         -0.8835523059       -3.6087232440        0.4726816820
 H         -1.0951562313       -2.5304787339       -1.4390884134
 C          0.1677020302       -1.2943548580       -2.5700478074
 C          0.9982000817       -0.0769594581       -2.8428137108
 C          1.6306464282       -1.4357548297       -2.8665517784
 H          1.9095042603       -1.8478050184       -3.8257887661
 H          2.3083134490       -1.7012369748       -2.0695058762
 H          0.8433561900        0.4337422690       -3.7831467137
 H          1.2092755000        0.5910742220       -2.0239110920
 H         -0.4973974253       -1.5730775302       -3.3842894117
