  62
        -98.93737917
 C         -1.9692204811       -1.2125159107       -0.0503952477
 C         -2.4516820248       -0.1722968051       -0.8785750664
 C         -3.8933423673        0.1172053009       -0.7833009681
 C         -4.6618038588       -0.6087979321        0.0464193064
 C         -6.1504051966       -0.5118776532        0.2671361719
 C         -6.7527892646        0.8934073005        0.4114236182
 C         -5.8259756562        1.9381432137        1.0502093156
 H         -6.3628462361        2.4418704785        1.8562641708
 H         -4.9571645483        1.4491499712        1.4942342860
 C         -5.3583341270        3.0075328933        0.0596717745
 H         -6.2084212621        3.3088642745       -0.5565048747
 H         -5.0336701299        3.8874008880        0.6204229019
 C         -4.2003376491        2.6005183163       -0.8511205626
 H         -3.2780063459        2.5241865468       -0.2681598552
 H         -4.0500767426        3.3998462246       -1.5809753645
 C         -4.3861091229        1.2733043539       -1.6046677493
 H         -5.4193827021        1.1372676578       -1.9147616346
 H         -3.7541704857        1.3029875599       -2.4964488338
 H         -7.0718331914        1.2549503775       -0.5652365703
 H         -7.6545598829        0.7894995854        1.0171342391
 H         -6.6512606791       -1.0329079784       -0.5538285619
 H         -6.3403450773       -1.0866880762        1.1766112253
 O         -4.1542502941       -1.6108252356        0.8188109598
 C         -2.8072677048       -1.9255865039        0.8059361181
 O         -2.4836013894       -2.8422600652        1.5875498080
 H          1.4098383388       -0.1209564193       -1.4387102119
 C          1.2362569621        0.2536597070       -0.4423795113
 C          0.3059618237       -0.3629290479        0.3778320122
 C          0.1028422644        0.1525943650        1.6555514104
 C          0.8078856529        1.2558905804        2.0968061891
 C          1.7338576876        1.8720057380        1.2717726797
 C          1.9403617036        1.3674844808       -0.0033090501
 N          2.9098618561        1.9744173688       -0.8343046470
 S          4.4879686923        1.7907158221       -0.2966445462
 O          4.6925514361        2.6251286981        0.8592584361
 O          5.3297425658        2.0607668821       -1.4399028093
 C          4.5809277956        0.0691880315        0.1616322225
 C          4.3219902134       -0.2977278843        1.4667444687
 C          4.2879731861       -1.6450762004        1.7883540230
 C          4.5086216350       -2.5962848970        0.8044172097
 C          4.7710377181       -2.2113702580       -0.5015837118
 C          4.8013993056       -0.8659735157       -0.8299503109
 H          5.0048848558       -0.5256175947       -1.8326741690
 H          4.9436334096       -2.9549103881       -1.2630404401
 H          4.4762788765       -3.6446569235        1.0569852409
 H          4.0828290215       -1.9476628116        2.8026607669
 H          4.1562458380        0.4719105363        2.2024199346
 H          2.8450234951        1.6717923887       -1.7964190600
 H          2.3043895653        2.7260687780        1.5993792673
 H          0.6364544269        1.6416018890        3.0904937118
 H         -0.6221045966       -0.3280724984        2.2989066205
 C         -0.4928297885       -1.5693116046       -0.0493126132
 H         -0.3710685422       -2.3443699223        0.7201399132
 C         -0.0728503755       -2.1410119912       -1.3867397923
 C          1.1836200349       -2.9525973484       -1.4836795362
 C         -0.1524991020       -3.6209291063       -1.6024052561
 H         -0.4647296398       -3.9838883888       -2.5701981086
 H         -0.5014228808       -4.2250873396       -0.7777775684
 H          1.7898534664       -2.8611887189       -2.3721880169
 H          1.7507031158       -3.1014112608       -0.5772785663
 H         -0.3366150600       -1.5004868196       -2.2203293462
 O         -1.7224670877        0.4800402890       -1.6700819952
