  62
        -98.94740728
 C         -2.5340301050       -0.2332690075       -0.0016870335
 C         -2.2591538956       -1.2622086226       -0.9323689203
 C         -1.6816629723       -2.4908824586       -0.3779313147
 C         -1.4543767873       -2.5820973831        0.9452076392
 C         -0.8913104048       -3.7762389860        1.6677345350
 C          0.6415608475       -3.8445476404        1.6466162533
 C          1.2496976508       -4.2648939766        0.3081794181
 H          2.2971641518       -4.5110296453        0.4928869651
 H          0.7577512299       -5.1707414120       -0.0484805889
 C          1.1852423877       -3.1789337337       -0.7740844605
 H          1.0105800291       -2.2057517630       -0.3088287040
 H          2.1504189722       -3.1065971823       -1.2821951775
 C          0.1293588427       -3.4067715618       -1.8560877223
 H          0.1439074047       -2.5375068818       -2.5194661799
 H          0.3923736481       -4.2883966389       -2.4461430871
 C         -1.3009162710       -3.5842459382       -1.3303964363
 H         -1.4064681906       -4.5583018744       -0.8522476076
 H         -1.9851744575       -3.5343349253       -2.1814894765
 H          1.0356689116       -2.8649267524        1.9286838320
 H          0.9484410849       -4.5656491222        2.4079715718
 H         -1.2192776004       -3.6915059284        2.7060340506
 H         -1.3056383289       -4.6918356681        1.2442101610
 O         -1.7479457016       -1.5761794643        1.8103966524
 C         -2.2471741296       -0.3660488917        1.3569232130
 O         -2.4143688847        0.4867851479        2.2509746791
 O         -2.4918979273       -1.1594165237       -2.1687461272
 C         -3.0386607632        1.1084609022       -0.5051545975
 C         -2.0077633127        2.1580901911       -0.1672074571
 C         -2.2994771212        3.3748376353        0.4337979064
 C         -1.2773958632        4.2416538696        0.7833596715
 C          0.0459505801        3.9092191241        0.5611751802
 C          0.3457220822        2.7029313300       -0.0635491363
 C         -0.6805653099        1.8584133650       -0.4474340789
 H         -0.4391599281        0.9249009590       -0.9352817972
 N          1.6755845410        2.3253596293       -0.3227399684
 S          2.0266339234        0.6711342779       -0.3243055317
 O          1.7099267283        0.1440901066       -1.6278273823
 O          1.4129494578        0.0206275564        0.8115909609
 C          3.7979482219        0.7192111708       -0.1251542868
 C          4.5776352249        1.0190373458       -1.2265466345
 C          5.9533050800        1.0871174248       -1.0748418929
 C          6.5236675919        0.8545953126        0.1681112124
 C          5.7289342704        0.5512398367        1.2632346439
 C          4.3517981837        0.4838124008        1.1185792351
 H          3.6934791712        0.2449979246        1.9387189744
 H          6.1745533543        0.3666730726        2.2273937884
 H          7.5946950925        0.9071003816        0.2834540852
 H          6.5744474762        1.3194245433       -1.9246941590
 H          4.0889027751        1.1805032006       -2.1731070732
 H          2.3470169790        2.8537172450        0.2175927372
 H          0.8409832628        4.5716852673        0.8679239446
 H         -1.5154053705        5.1809697917        1.2592445753
 H         -3.3230181174        3.6364265175        0.6468296946
 H         -3.0939913885        1.0110771393       -1.6000315805
 C         -4.4198552619        1.4129745806        0.0328355045
 C         -5.3561080171        2.2881506418       -0.7444898594
 C         -5.6118013275        0.8148856385       -0.6502376834
 H         -6.4340469745        0.4692163983       -0.0420882069
 H         -5.4267634437        0.2043779877       -1.5220839881
 H         -6.0082310933        2.9553945002       -0.2015686459
 H         -5.0051073197        2.6812558103       -1.6865858780
 H         -4.4388905570        1.4708765585        1.1153066734
