  62
        -98.94597781
 C         -1.1738157032       -0.9840390588       -0.4919131346
 C         -2.2652305217       -1.2388571814        0.3782428493
 C         -3.0357580949       -0.0735245946        0.8271089512
 C         -2.6485944086        1.1547663147        0.4390889268
 C         -3.3592287501        2.4296944893        0.7892271439
 C         -4.4082121312        2.7923633629       -0.2714161145
 C         -5.3365579455        1.6353096407       -0.6403468161
 H         -6.0522972118        2.0134106179       -1.3733989851
 H         -4.7528852512        0.8542206561       -1.1325745357
 C         -6.0945623798        1.0267258940        0.5476360310
 H         -6.0811333533        1.7192567169        1.3900395492
 H         -7.1387170961        0.8843369480        0.2613727923
 C         -5.5688916603       -0.3353430433        1.0048091503
 H         -5.4923389407       -1.0058932793        0.1452581897
 H         -6.2993449996       -0.7680458508        1.6936141000
 C         -4.2147020332       -0.3214917318        1.7256966026
 H         -4.0569676458       -1.3139197520        2.1583811298
 H         -4.2372557778        0.4060855080        2.5400726299
 H         -3.8881312881        3.1159278190       -1.1758153341
 H         -4.9988277842        3.6315890856        0.1005687298
 H         -3.8331755574        2.3177126569        1.7626710670
 H         -2.6196453114        3.2301671543        0.8489457277
 O         -1.5823595072        1.3678038467       -0.3684488480
 C         -0.8197854606        0.3152567448       -0.8578759236
 O          0.1123621386        0.6877686808       -1.5966024600
 O         -2.5859172651       -2.3990945461        0.7560365370
 C         -0.3724791977       -2.1953849008       -0.9395507214
 C          0.7990503280       -2.4156073150       -0.0115182802
 C          1.0077343950       -3.6428931741        0.6064324427
 C          2.0638632199       -3.8175734365        1.4833154416
 C          2.9115399186       -2.7660693135        1.7822199634
 C          2.7092675093       -1.5350052652        1.1690702625
 C          1.6790170095       -1.3770847947        0.2556112792
 H          1.5404712444       -0.4209339183       -0.2216689019
 N          3.5313547530       -0.4338388162        1.4512339350
 S          2.8340467560        1.0886013601        1.5545981995
 O          3.7474023961        1.8395003205        2.3954359339
 O          1.4695242317        1.0211822335        2.0278759367
 C          2.9193362219        1.7615057420       -0.0889506915
 C          1.9888467101        2.7095298763       -0.4603245450
 C          2.0839874568        3.2863632198       -1.7161228408
 C          3.1026422027        2.9053312598       -2.5738620272
 C          4.0305502259        1.9515686203       -2.1849549695
 C          3.9439028609        1.3742202427       -0.9288177570
 H          4.6431421202        0.6248467331       -0.5966557094
 H          4.8183685715        1.6530439958       -2.8580145438
 H          3.1691776731        3.3509030215       -3.5541057134
 H          1.3550620290        4.0197305310       -2.0217493281
 H          1.1985201215        2.9626852772        0.2290511537
 H          4.2124078285       -0.5816876920        2.1821463268
 H          3.7173965140       -2.8913276632        2.4893305608
 H          2.2160402571       -4.7756851588        1.9566633842
 H          0.3241631515       -4.4561625120        0.4124750847
 H         -1.0516797725       -3.0517141891       -0.8260419890
 C          0.0930831163       -2.1386471932       -2.3809624245
 C          0.3891935773       -3.4189329795       -3.1008660137
 C         -0.8214666095       -2.6152172306       -3.4676326773
 H         -0.8266158810       -2.0811694382       -4.4056688209
 H         -1.7911731783       -2.9913998510       -3.1750098748
 H          1.2197914450       -3.4402853925       -3.7891258696
 H          0.2385821894       -4.3431422963       -2.5639751563
 H          0.7176371760       -1.2815344139       -2.5952475388
