  62
        -98.94523628
 C          2.4786482541        1.2019845443        0.0046064373
 C          3.1721948095        0.4079661668        0.9483466449
 C          3.8653502743       -0.7714175713        0.4139142124
 C          3.7962377269       -1.0325226998       -0.9044719939
 C          4.4091784773       -2.2274522234       -1.5746072667
 C          3.4179839197       -3.3978787530       -1.6380021529
 C          2.7417365219       -3.7074496592       -0.3022304734
 H          2.0959492076       -2.8691941258       -0.0274842159
 H          2.0894384604       -4.5695566877       -0.4594315641
 C          3.7142813268       -4.0024146136        0.8486995291
 H          3.3540344260       -4.8772901198        1.3939411221
 H          4.6967679708       -4.2523480070        0.4469805608
 C          3.8564376775       -2.8698214038        1.8672515414
 H          4.3852608300       -3.2624392907        2.7397481151
 H          2.8648391881       -2.5535848750        2.2018770232
 C          4.6228985216       -1.6306745506        1.3871638346
 H          4.8119400722       -0.9992342644        2.2602239507
 H          5.5838568850       -1.9332212180        0.9668286133
 H          2.6392868391       -3.1551848392       -2.3652084430
 H          3.9498484148       -4.2829621122       -1.9916372666
 H          4.6884414517       -1.9452386380       -2.5910218817
 H          5.3037332346       -2.5241286326       -1.0305381390
 O          3.1112609144       -0.2533086623       -1.7794639430
 C          2.4210679114        0.8715135819       -1.3497283554
 O          1.8172676773        1.4783332030       -2.2535110114
 O          3.2045524536        0.6696734551        2.1819057408
 C          1.7201287751        2.4251060836        0.4910121837
 C          0.2449897522        2.2185811240        0.2489343434
 C         -0.5562702511        3.1027404143       -0.4596675143
 C         -1.8944046689        2.8167159354       -0.6724836347
 C         -2.4621522721        1.6565429003       -0.1796341418
 C         -1.6709952260        0.7685206636        0.5382655523
 C         -0.3329946983        1.0575972279        0.7496731007
 H          0.2849868515        0.3617623116        1.3049540299
 N         -2.2410510969       -0.4106864527        1.0554821759
 S         -3.0378051644       -1.4189994829       -0.0289722554
 O         -2.9726717170       -2.7369026235        0.5654304136
 O         -2.5050220605       -1.2897631135       -1.3658307231
 C         -4.7211476121       -0.8419557700        0.0233011804
 C         -5.3569205466       -0.4648601360       -1.1431710076
 C         -6.6696694515       -0.0236915885       -1.0777673279
 C         -7.3190903211        0.0313725673        0.1459617685
 C         -6.6667278690       -0.3532798197        1.3081047353
 C         -5.3552228206       -0.7965515122        1.2496503327
 H         -4.8129550000       -1.1073817660        2.1269348211
 H         -7.1750418553       -0.3088249810        2.2577731343
 H         -8.3397138702        0.3766664321        0.1941755675
 H         -7.1781847148        0.2753729826       -1.9802359869
 H         -4.8085358368       -0.5181761742       -2.0703123496
 H         -1.5980207520       -0.9498426221        1.6181797093
 H         -3.5016602129        1.4285697830       -0.3501175474
 H         -2.5038251728        3.5082842330       -1.2338999000
 H         -0.1310607166        4.0086893436       -0.8584894373
 H          1.8863668305        2.4573162417        1.5780254007
 C          2.2756648131        3.6905122859       -0.1247816374
 C          2.1123948044        5.0018833975        0.5821870119
 C          3.4591895350        4.3486254408        0.5165786825
 H          4.2151015289        4.7823137761       -0.1206360564
 H          3.8539536923        3.8946412031        1.4138744628
 H          1.9450916999        5.8891130530       -0.0093272290
 H          1.5927570611        4.9972021239        1.5282529355
 H          2.2355426082        3.6809231582       -1.2079252970
