  62
        -98.94830001
 C         -1.3203715780       -1.5561118314        0.2174634762
 C         -1.6479072466       -0.5886188044        1.1978935717
 C         -2.9144522535        0.1226525226        1.0011227383
 C         -3.6845436544       -0.1697635468       -0.0629861537
 C         -5.0327832015        0.4238843093       -0.3707062205
 C         -4.9770319158        1.7611317016       -1.1207503919
 C         -4.5108762246        2.9529574260       -0.2842126402
 H         -4.7223144783        3.8547424831       -0.8622292282
 H         -5.1001755793        3.0070782355        0.6318426028
 C         -3.0163449692        2.9309397508        0.0638162124
 H         -2.5783309040        3.9152250549       -0.1178447671
 H         -2.4897717993        2.2365463684       -0.5955817670
 C         -2.6986770565        2.5627420745        1.5128362088
 H         -1.6097960206        2.5304624728        1.6086506255
 H         -3.0746052904        3.3414383209        2.1809726132
 C         -3.2683384712        1.2120495907        1.9672208434
 H         -2.8238754180        0.9601698195        2.9333972029
 H         -4.3496314277        1.2826062729        2.0865428339
 H         -4.3222370435        1.6492648113       -1.9881879550
 H         -5.9842278295        1.9719946209       -1.4878391176
 H         -5.5957078436        0.5488494499        0.5548104402
 H         -5.5532016680       -0.3012137094       -1.0002696086
 O         -3.3247043721       -1.0908969652       -0.9957078921
 C         -2.1185764699       -1.7728221340       -0.9050188273
 O         -1.8892553210       -2.5341583900       -1.8641579387
 O         -0.9174512696       -0.3391239783        2.1951978768
 C         -0.0107910701       -2.3113593444        0.3475613492
 C          0.9584620976       -1.8626367859       -0.7192434476
 C          1.7679025981       -2.7273491157       -1.4445992812
 C          2.6588955441       -2.2288902994       -2.3800792207
 C          2.7888571323       -0.8675472511       -2.5875934931
 C          1.9875844781        0.0060907296       -1.8611182507
 C          1.0739518459       -0.4987838914       -0.9512120127
 H          0.4351949867        0.1885000120       -0.4187728508
 N          2.0909884858        1.3973157592       -2.0131089895
 S          1.9430652627        2.3630502036       -0.6511613170
 O          0.5592599489        2.4956649915       -0.2764597648
 O          2.6158874294        3.5929537128       -1.0154670889
 C          2.8830111915        1.5143675811        0.6061818592
 C          2.2603913143        0.8705497840        1.6555018840
 C          3.0408987798        0.1774499707        2.5687771641
 C          4.4179018337        0.1394472458        2.4206437718
 C          5.0291198855        0.8002189702        1.3654363555
 C          4.2560698722        1.4915821577        0.4483828064
 H          4.6933372838        2.0271636529       -0.3786879999
 H          6.1010964202        0.7750196895        1.2543166975
 H          5.0169812427       -0.4057620884        3.1328798031
 H          2.5577730380       -0.3325197166        3.3871899504
 H          1.1859825930        0.9018187886        1.7535650611
 H          2.8428492700        1.7056569156       -2.6117364719
 H          3.4946650432       -0.4823647641       -3.3073149077
 H          3.2728846402       -2.9118619174       -2.9471227984
 H          1.6963712545       -3.7903627286       -1.2839180437
 H          0.4062027869       -1.9965404777        1.3170194366
 C         -0.2369450911       -3.8072380218        0.3810064731
 C          0.7099578061       -4.6934804774        1.1323874900
 C         -0.6665584398       -4.4432839127        1.6682082656
 H         -1.3913768808       -5.2425378758        1.6311303166
 H         -0.7732934663       -3.7988752864        2.5287327002
 H          0.9307267926       -5.6704507536        0.7296921881
 H          1.5415795427       -4.2237347151        1.6352986467
 H         -0.6785893471       -4.1838968050       -0.5342050269
