  62
        -98.93465528
 C         -2.6933240599       -0.3426022218       -0.2715466995
 C         -2.2635281191       -1.1993552418        0.7702897302
 C         -1.6401485985       -2.4716318214        0.3500561397
 C         -1.4847863388       -2.7436232410       -0.9553202704
 C         -0.9069189183       -3.9780013105       -1.6027147509
 C          0.3617100422       -4.5809783399       -0.9858044614
 C          1.3325760319       -3.5678054295       -0.3610549315
 H          2.3358892119       -3.7521699289       -0.7512255518
 H          1.0596868012       -2.5481958696       -0.6419834311
 C          1.3975307924       -3.6715679899        1.1645515185
 H          1.4282092831       -4.7276761199        1.4448640682
 H          2.3268893822       -3.2094240294        1.5072565983
 C          0.2583140122       -2.9837981407        1.9156632990
 H          0.3671158516       -1.8996746806        1.8249006992
 H          0.3612326027       -3.2250835808        2.9771393689
 C         -1.1613896077       -3.3609742213        1.4620428594
 H         -1.2199454672       -4.4116968513        1.1857315091
 H         -1.8381124575       -3.1820975119        2.3025092296
 H          0.0849735629       -5.3157666203       -0.2305855415
 H          0.8697470823       -5.1255154695       -1.7837128917
 H         -1.6888966779       -4.7430549309       -1.6313237508
 H         -0.7061433588       -3.6835661101       -2.6356604909
 O         -1.9113025395       -1.8879189210       -1.9275674701
 C         -2.4919948101       -0.6762079314       -1.6130106796
 O         -2.8104240408        0.0115049387       -2.6060475594
 H         -0.6837837503        0.9595038491        0.6867733802
 C         -0.8904643410        1.8236869991        0.0728509305
 C         -2.1807858313        2.0539038185       -0.3808221591
 C         -2.4227916021        3.1783086886       -1.1599162088
 C         -1.3888890027        4.0363468392       -1.4924002589
 C         -0.0946514824        3.7741996698       -1.0811371193
 C          0.1554941684        2.6546051498       -0.2951589397
 N          1.4542932587        2.3389915604        0.1378781599
 S          1.8335657897        0.6918654706        0.2543994894
 O          1.2681123698       -0.0308013095       -0.8615934106
 O          1.4767273503        0.2410235601        1.5749718894
 C          3.6098279196        0.7572408916        0.1155528889
 C          4.2093490794        0.4646800422       -1.0944010914
 C          5.5893752093        0.5487002630       -1.1962007818
 C          6.3410914195        0.9251262232       -0.0933355919
 C          5.7248775897        1.2147300726        1.1152816483
 C          4.3459824197        1.1310556218        1.2242874687
 H          3.8224228399        1.3358711513        2.1435199189
 H          6.3127778398        1.5039118827        1.9713302382
 H          7.4144804894        0.9899271438       -0.1754795422
 H          6.0708597192        0.3204862635       -2.1333724620
 H          3.5832318093        0.1694725121       -1.9213132613
 H          2.1705663783        2.8595822309       -0.3500041902
 H          0.7173622071        4.4236534204       -1.3708277894
 H         -1.5882122834        4.9045114992       -2.1021097886
 H         -3.4207971523        3.3606161881       -1.5304691184
 C         -3.2663096306        1.0535422878       -0.0666529390
 H         -4.0500822409        1.1741154176       -0.8338177987
 C         -3.9166050103        1.2872557072        1.2862429813
 C         -3.2399181004        2.0268818173        2.3966855112
 C         -4.3831520210        2.6617004468        1.6666131417
 H         -5.3299009209        2.7603865062        2.1753917220
 H         -4.1541334216        3.4722985371        0.9916259918
 H         -3.3928817199        1.6656592170        3.4019774912
 H         -2.2440837407        2.4047591179        2.2212708010
 H         -4.5507987898        0.4581347667        1.5792747713
 O         -2.4006058589       -0.9566403322        1.9969069903
