  62
        -98.93037362
 C          2.3569010418        0.9160784197        0.7594546961
 C          3.4208091893        0.9480574702       -0.1742060481
 C          4.5494322729        0.0458738736        0.1066972354
 C          4.5218983126       -0.7521124702        1.1880584802
 C          5.6048718428       -1.6935099218        1.6448732696
 C          5.9152762166       -2.8809344654        0.7131249279
 C          7.0636711505       -2.6290819264       -0.2718307924
 H          7.7133891605       -1.8541873875        0.1368682881
 H          7.6669713135       -3.5361172060       -0.3467992806
 C          6.6494302658       -2.2495488982       -1.6968381687
 H          6.3335414312       -3.1500419087       -2.2285644015
 H          7.5315633117       -1.8586336598       -2.2086302019
 C          5.5171174303       -1.2289105234       -1.8131821958
 H          4.5624598484       -1.7105459409       -1.5876079568
 H          5.4574115188       -0.9025738070       -2.8534466352
 C          5.6647551334        0.0014651309       -0.8972246524
 H          6.6311903489       -0.0055170783       -0.3956043681
 H          5.5895038967        0.9159565696       -1.4887787447
 H          6.1942713297       -3.7195336092        1.3531279438
 H          5.0106268269       -3.1700853775        0.1787679732
 H          6.5183787181       -1.1193685581        1.8158326668
 H          5.2668363751       -2.0771966806        2.6096427747
 O          3.4716140347       -0.7643540541        2.0540153162
 C          2.3730167099        0.0511025760        1.8580635833
 O          1.4847928399       -0.0734287024        2.7260957221
 O          3.4589701516        1.6892432031       -1.1910950095
 C          1.1120703314        1.7814293662        0.6345398776
 C          0.1440350952        1.1629460248       -0.3465372371
 C          0.3975542359        1.1484474737       -1.7138428921
 C         -0.5060406960        0.5678969914       -2.5853681297
 C         -1.6737943194       -0.0085505514       -2.1174470595
 C         -1.9346563295       -0.0026721412       -0.7538586501
 C         -1.0292979867        0.5872497399        0.1195125649
 H         -1.2275528041        0.5805920939        1.1833117796
 N         -3.1075063072       -0.6074011361       -0.2652672568
 S         -4.5413961272       -0.2912289277       -1.1024186499
 O         -4.6136299050       -1.1809620020       -2.2342787475
 O         -4.6389902225        1.1197316482       -1.4019214896
 C         -5.7589090134       -0.7568496893        0.1118586312
 C         -6.3441237623        0.2220707835        0.8922070139
 C         -7.2731549318       -0.1515427748        1.8505452015
 C         -7.5964837593       -1.4902495505        2.0130838980
 C         -7.0004928828       -2.4612735708        1.2218744943
 C         -6.0716761662       -2.0946874181        0.2610615057
 H         -5.5901114098       -2.8127183998       -0.3820022558
 H         -7.2569451780       -3.5005244693        1.3499937172
 H         -8.3199409051       -1.7782074604        2.7594174689
 H         -7.7405010341        0.6010555313        2.4650130726
 H         -6.0689154696        1.2511502132        0.7247943608
 H         -3.2250607662       -0.4603414589        0.7280378856
 H         -2.3874036503       -0.4579522474       -2.7893870924
 H         -0.2987847810        0.5622820663       -3.6451871670
 H          1.3159309315        1.5769850972       -2.0836987247
 H          0.6394450521        1.7583185876        1.6257659568
 C          1.4143134143        3.2253796310        0.2865921375
 C          0.3725346064        4.2661391572        0.5615091002
 C          1.6201613177        4.2163740836        1.3904833844
 H          2.3616485455        4.9894127067        1.2560177432
 H          1.5438030241        3.8572925768        2.4067477337
 H          0.2537465518        5.0743162442       -0.1436574764
 H         -0.5519587332        3.9407228488        1.0147122861
 H          2.0201311860        3.3405031499       -0.6015724840
