  62
        -98.94021415
 C          1.4861722795        1.5935724107       -0.1541836988
 C          2.5594456595        1.2140565108        0.6918407212
 C          3.4714536299        0.1754791113        0.1846356310
 C          3.2547113603       -0.3429973884       -1.0362892692
 C          4.0664735807       -1.3968339779       -1.7386453394
 C          3.4730100012       -2.7999328982       -1.5338753799
 C          3.8909707512       -3.5015730584       -0.2409957600
 H          3.2644521515       -4.3904944987       -0.1383614204
 H          4.9244691713       -3.8408529381       -0.3377166800
 C          3.7749825607       -2.6638950889        1.0355524902
 H          3.7432183008       -3.3510987091        1.8831637500
 H          2.8358134205       -2.1084897592        1.0328131202
 C          4.9523238203       -1.6956846285        1.2279948707
 H          5.3741180602       -1.8333960487        2.2255952407
 H          5.7421295905       -1.9515580281        0.5218219108
 C          4.6064222599       -0.2042987986        1.0953101811
 H          4.3210056896        0.1932741210        2.0741114012
 H          5.5023212397        0.3446198718        0.7866400014
 H          3.7764076915       -3.4305436578       -2.3721584700
 H          2.3846926612       -2.7140016485       -1.5753505401
 H          4.0255079708       -1.1589994976       -2.8040868793
 H          5.1018094807       -1.3580547977       -1.4124990492
 O          2.1978742103        0.0300169415       -1.8076555192
 C          1.2862156099        0.9891995111       -1.3947605291
 O          0.3757347000        1.1958414510       -2.2213913092
 H         -1.5759871405        1.9626511700       -1.1858141093
 C         -1.7304804906        1.7302859797       -0.1437954394
 C         -0.7515111108        2.0525426697        0.7843771609
 C         -0.9584520010        1.7062848392        2.1158874408
 C         -2.1169738608        1.0586018887        2.5069627204
 C         -3.0802659905        0.7168242487        1.5741772501
 C         -2.8717660004        1.0424637492        0.2405014802
 N         -3.7988631701        0.6079288692       -0.7283638401
 S         -4.1313127496       -1.0362826010       -0.6830639406
 O         -4.3422962792       -1.4353023706       -2.0572701208
 O         -5.2424929696       -1.2691417216        0.2069716091
 C         -2.6681821394       -1.8096949907       -0.0066239206
 C         -2.7885422293       -2.6259721611        1.1000136991
 C         -1.6484245292       -3.1899274009        1.6493933891
 C         -0.4080937192       -2.9165939103        1.0946711194
 C         -0.3054235993       -2.0953276199       -0.0166856203
 C         -1.4417034594       -1.5411901901       -0.5819183703
 H         -1.3683836695       -0.8992730998       -1.4463233001
 H          0.6579332907       -1.8665024894       -0.4449682201
 H          0.4844326308       -3.3401122001        1.5282018394
 H         -1.7281745792       -3.8307485712        2.5125033789
 H         -3.7703476193       -2.7950218915        1.5115784189
 H         -3.5414032300        0.8828872595       -1.6662683599
 H         -3.9782651104        0.1882129683        1.8514283798
 H         -2.2661847309        0.8046062083        3.5450187403
 H         -0.1908390612        1.9351169192        2.8408892410
 C          0.5511764290        2.6807789703        0.3550672513
 H          1.0427204687        3.0829141301        1.2505123315
 C          0.3681228188        3.8072403105       -0.6412306683
 C         -0.2012808517        5.1098554602       -0.1675095480
 C          1.2457795284        5.0176463808       -0.5455041078
 H          1.5725599484        5.4900212412       -1.4598525576
 H          1.9826112183        5.0407037508        0.2440186423
 H         -0.8708486018        5.6483814402       -0.8204982180
 H         -0.4472147919        5.1936511498        0.8802383120
 H          0.1018729991        3.4725244407       -1.6356761185
 O          2.7531332391        1.7298551605        1.8241469614
