  62
        -98.94539893
 C         -1.5516400262       -1.3007142859       -0.7086500048
 C         -2.8275392405       -1.0799334953       -0.1267276608
 C         -3.5144311798        0.1627194942       -0.4955387530
 C         -2.9207977822        1.0066953754       -1.3584700917
 C         -3.4730202680        2.3380763255       -1.7765195156
 C         -2.9616143224        3.4584472690       -0.8606225470
 C         -3.1148350680        3.1567344532        0.6303300628
 H         -2.4494300990        2.3302088810        0.8939850953
 H         -2.7573625951        4.0331687457        1.1759538158
 C         -4.5484425023        2.8275999556        1.0707908275
 H         -4.7624584773        3.3713271205        1.9933764255
 H         -5.2555624840        3.1765303017        0.3172489596
 C         -4.8025575262        1.3464635153        1.3576227374
 H         -5.7636175710        1.2597904003        1.8716763767
 H         -4.0323862045        0.9689985802        2.0356056625
 C         -4.8544991868        0.4285300988        0.1299700178
 H         -5.2302622681       -0.5449475419        0.4584459943
 H         -5.5503811508        0.8363976118       -0.6059603893
 H         -3.4967259032        4.3780279900       -1.1057998554
 H         -1.8991910193        3.6154359707       -1.0628877915
 H         -4.5604280665        2.3000556625       -1.7502873694
 H         -3.1487451014        2.5406691473       -2.7987143067
 O         -1.7157029322        0.7521759981       -1.9204766850
 C         -0.9842553155       -0.3800168905       -1.5891867520
 O          0.1192671735       -0.4349654720       -2.1668562236
 O         -3.3704700658       -1.8965703987        0.6664887984
 C         -0.8221790690       -2.5557559416       -0.2566292252
 C         -0.0025635119       -2.2378197508        0.9728495421
 C         -0.2100039095       -2.9187134927        2.1657185053
 C          0.5048051524       -2.5776707906        3.3004765657
 C          1.4156981270       -1.5385270583        3.2697468993
 C          1.6330193349       -0.8510078719        2.0787751615
 C          0.9474108819       -1.2260700915        0.9337098507
 H          1.1166699453       -0.6922281032        0.0140347709
 N          2.5496267175        0.2062620995        2.0324676814
 S          2.3513514401        1.5547722885        1.0515913212
 O          2.8850421211        2.6466555262        1.8427363969
 O          0.9874621269        1.7025355832        0.6065218577
 C          3.4791054423        1.2432946732       -0.2910977426
 C          3.0303064611        0.8084703418       -1.5206088125
 C          3.9608347262        0.5582038446       -2.5191972405
 C          5.3117223835        0.7459566720       -2.2754936970
 C          5.7461240391        1.1874714739       -1.0342147724
 C          4.8236690199        1.4379880396       -0.0329210861
 H          5.1149584051        1.7956982914        0.9406479228
 H          6.7972099977        1.3360731302       -0.8460496271
 H          6.0281100295        0.5488952955       -3.0575229816
 H          3.6150792645        0.2147785414       -3.4813050097
 H          1.9748791882        0.6625832504       -1.6945769207
 H          2.9414863293        0.4615689798        2.9268985438
 H          1.9528975526       -1.2521214929        4.1612944771
 H          0.3356658988       -3.1117864663        4.2232259155
 H         -0.9529228821       -3.7014392551        2.2063998308
 H         -1.6126041483       -3.2571736764        0.0452120286
 C          0.0263778175       -3.2211665793       -1.3197559958
 C          0.3311906142       -4.6828265837       -1.1923860137
 C         -0.6078874333       -4.2025789636       -2.2570958971
 H         -0.2793867647       -4.2161214930       -3.2852239981
 H         -1.6629636266       -4.4001859472       -2.1344623774
 H          1.3087639933       -5.0309620549       -1.4878902112
 H         -0.0879729372       -5.2108842204       -0.3493692722
 H          0.7981361873       -2.5791976058       -1.7223484636
