  62
        -98.94286306
 C         -2.3363789160       -0.5417895600       -0.0898262124
 C         -1.3170149286       -0.8151710921        0.8481835123
 C         -0.5235933681       -2.0367094224        0.6310332272
 C         -0.8052873214       -2.8172078543       -0.4271807799
 C         -0.0826745449       -4.0389329983       -0.9386196272
 C          0.5164783062       -5.0228283648        0.0753856738
 C          2.0386953550       -4.9224178080        0.2056128827
 H          2.4234434852       -5.8907445306        0.5340610011
 H          2.4569089912       -4.7236169909       -0.7836084828
 C          2.5520792624       -3.8688212846        1.1850668893
 H          2.3303451174       -4.1855964101        2.2064851341
 H          3.6390289890       -3.8269345965        1.0837162552
 C          1.9884407330       -2.4617444436        0.9846463159
 H          2.6719981088       -1.7515512215        1.4566948407
 H          1.9527258283       -2.2029697239       -0.0755116829
 C          0.5955035038       -2.2724175680        1.6068468711
 H          0.5981425817       -1.3893086549        2.2518735305
 H          0.3502971001       -3.1236823246        2.2460328073
 H          0.0377577579       -4.9001680811        1.0446954290
 H          0.2811904372       -6.0293662895       -0.2753550402
 H         -0.8162886938       -4.5563948662       -1.5626140654
 H          0.6999437586       -3.6829055665       -1.6166496315
 O         -1.8373786277       -2.5434636052       -1.2773659040
 C         -2.5938565722       -1.3926788693       -1.1608528031
 O         -3.4552338099       -1.2440740512       -2.0534508970
 O         -1.0554983218       -0.0499953537        1.8153557359
 C         -3.0779902967        0.7815263309       -0.0240298387
 C         -2.0634758537        1.9007020530       -0.0783056722
 C         -2.1237924968        3.0380348241        0.7167207095
 C         -1.1266385941        3.9963862139        0.6447528341
 C         -0.0406388445        3.8307323231       -0.1955960337
 C          0.0214613109        2.7020491323       -1.0050861923
 C         -1.0028468137        1.7710336941       -0.9665015141
 H         -0.9430042552        0.9032224131       -1.6072183052
 N          1.1118423115        2.4694668872       -1.8681690005
 S          2.0215018859        1.0790674672       -1.6433727493
 O          3.0662648436        1.1570957860       -2.6425819777
 O          1.1771518556       -0.0862113610       -1.6976336020
 C          2.7499856899        1.2714291901       -0.0257414055
 C          4.0868418244        1.6104776708        0.0616238834
 C          4.6496944631        1.8114724839        1.3113499367
 C          3.8667676345        1.6808577685        2.4486987699
 C          2.5257327555        1.3467447548        2.3428839961
 C          1.9560743569        1.1390817127        1.0956327646
 H          0.9164627309        0.8703839352        0.9965018134
 H          1.9080421660        1.2426822371        3.2207806487
 H          4.3025865316        1.8390522776        3.4225808277
 H          5.6930238100        2.0701701877        1.3942181277
 H          4.6547651627        1.7003628242       -0.8502807432
 H          1.7375835824        3.2586322210       -1.9560450207
 H          0.7523757605        4.5626368948       -0.2263894064
 H         -1.1851917502        4.8742277470        1.2698787471
 H         -2.9465839684        3.1693305594        1.4003784238
 H         -3.6997738597        0.8295061278       -0.9302992612
 C         -3.9769162764        0.8405860279        1.1930019297
 C         -5.2436143022        1.6405705002        1.1597230526
 C         -5.3020321414        0.1434101088        1.1446064943
 H         -5.6472277202       -0.3708890474        2.0288134165
 H         -5.5654826311       -0.3521928168        0.2211657055
 H         -5.5537803472        2.1533773473        2.0576624054
 H         -5.4816258509        2.1641508790        0.2460714910
 H         -3.4206622885        0.7951259106        2.1219221975
