  62
        -98.94135165
 C          0.5380071513        1.5034011668        0.0459740297
 C          1.4559499309        1.2124224020        1.0808306254
 C          2.4494693871        0.1684200175        0.7897063235
 C          2.4197200964       -0.4472594326       -0.4067135922
 C          3.4426640852       -1.4291825490       -0.9039414611
 C          4.7298105833       -0.6835601397       -1.3128579643
 C          5.9528938183       -1.0216296069       -0.4609400141
 H          6.3203410006       -2.0108451180       -0.7416606277
 H          6.7332089036       -0.2981216696       -0.7063726462
 C          5.7292918846       -1.0172013917        1.0541397043
 H          6.7158426481       -1.0076132037        1.5225128964
 H          5.2496388111       -1.9485380633        1.3591304787
 C          4.9118235425        0.1572815229        1.6066330056
 H          4.9769075410        1.0195420781        0.9426272860
 H          5.3507021501        0.4573804875        2.5605379605
 C          3.4303313330       -0.1647666821        1.8798469022
 H          3.3290865482       -1.2199956745        2.1500629700
 H          3.1001043650        0.4244440446        2.7409572590
 H          4.9660673882       -0.9104875777       -2.3533925591
 H          4.5352914429        0.3895511415       -1.2612190772
 H          3.6553236031       -2.1641058929       -0.1306893907
 H          3.0120533727       -1.9357782282       -1.7665542802
 O          1.4896857339       -0.1735824229       -1.3570521627
 C          0.5200270321        0.7966485363       -1.1559120051
 O         -0.2763574503        0.9338958735       -2.1020935281
 H         -1.4312992942        0.2691423921        1.1441634972
 C         -2.1925462029        0.8246192297        0.6153223397
 C         -1.8873142885        2.0689818999        0.0785568319
 C         -2.8898729358        2.7744027655       -0.5754504515
 C         -4.1582777753        2.2353241964       -0.7011395970
 C         -4.4519978340        0.9862527271       -0.1870536711
 C         -3.4572511508        0.2767186579        0.4780812643
 N         -3.7260063238       -0.9899038333        1.0157656339
 S         -2.5426628460       -2.1325756019        1.2413235971
 O         -3.2810823189       -3.3625134622        1.4460765841
 O         -1.6685294760       -1.7516779885        2.3244017674
 C         -1.5999627782       -2.2918934801       -0.2666359302
 C         -2.1043022553       -1.8974967980       -1.4883043262
 C         -1.3519547549       -2.1302002473       -2.6289157677
 C         -0.1291316278       -2.7729569940       -2.5346708100
 C          0.3588507157       -3.1749746565       -1.3014402528
 C         -0.3774788163       -2.9243411366       -0.1563629805
 H         -0.0268623055       -3.2013090371        0.8256599489
 H          1.3086427314       -3.6796845250       -1.2253263545
 H          0.4496067973       -2.9549796048       -3.4264920040
 H         -1.7231538652       -1.8018654509       -3.5860177131
 H         -3.0571066873       -1.3980763143       -1.5515825436
 H         -4.6130647194       -1.3984934111        0.7629031765
 H         -5.4378894189        0.5606352831       -0.2945030060
 H         -4.9269710902        2.7922151416       -1.2147550293
 H         -2.6773697142        3.7453964312       -0.9911910429
 C         -0.4874391261        2.6011367890        0.2542003621
 H         -0.3713148398        2.9170774632        1.3023318881
 C         -0.1756012641        3.7791123479       -0.6474445955
 C         -0.4891688178        5.1777558942       -0.2093482193
 C          0.9332749163        4.7101257385       -0.2616576350
 H          1.5775641629        5.0957920564       -1.0374915777
 H          1.4430375919        4.5114497793        0.6699843131
 H         -0.9421376285        5.3082997733        0.7618678035
 H         -0.8195381415        5.8894014867       -0.9509784468
 H         -0.2795113685        3.5338009497       -1.6985860930
 O          1.4513123002        1.8073119886        2.1940795521
