  62
        -98.93782911
 C         -1.6248302508       -1.0630846697       -0.0579947502
 C         -2.9370713108       -1.2464927797        0.4338107698
 C         -3.9076765307       -0.1729038796        0.1493273202
 C         -3.4951748207        0.9177938405       -0.5215658396
 C         -4.2887115007        2.1341037707       -0.9267747393
 C         -5.2314338805        2.7254394105        0.1326599809
 C         -6.7122536506        2.5161821607       -0.1878624690
 H         -7.2934761405        3.2850807606        0.3260239712
 H         -6.8594132606        2.6597138209       -1.2603602990
 C         -7.2793925406        1.1582263406        0.2223776207
 H         -7.3662119106        1.1168074104        1.3103400707
 H         -8.2899124207        1.0851241708       -0.1865186792
 C         -6.4737097808       -0.0565637993       -0.2430831296
 H         -6.1183304408        0.0875768609       -1.2627422596
 H         -7.1471417308       -0.9161980193       -0.2599895898
 C         -5.2963282007       -0.4050669296        0.6797879102
 H         -5.4022134006        0.1206778402        1.6332697403
 H         -5.3236299908       -1.4720222297        0.9222894100
 H         -4.9939437505        2.3132414403        1.1121227308
 H         -5.0464358405        3.7997344805        0.1806757311
 H         -3.5409880106        2.8765040807       -1.2146515092
 H         -4.8521304007        1.8942835009       -1.8318988293
 O         -2.2143632807        1.0548158505       -0.9700872497
 C         -1.2547385008        0.0797315304       -0.7631578500
 O         -0.1378851208        0.3501177005       -1.2422418900
 H          2.1236560691       -1.9643857999       -0.4257298607
 C          1.8686370392       -1.5538354001        0.5363523594
 C          0.5595984392       -1.5601239301        0.9906821595
 C          0.2840318794       -1.0069101903        2.2399215496
 C          1.2899664095       -0.4576201306        3.0096835997
 C          2.5941190294       -0.4385043706        2.5448488096
 C          2.8805372593       -0.9877464403        1.3021276894
 N          4.2005847393       -1.0002851703        0.8095131993
 S          4.5323676792       -0.2372646600       -0.6455359005
 O          3.7909791191       -0.8619764997       -1.7084059906
 O          5.9745725992       -0.2827581301       -0.7605070806
 C          4.0138018893        1.4496555100       -0.3851139401
 C          2.6775734694        1.7771782701       -0.4944751099
 C          2.2882088395        3.0771220501       -0.2072095696
 C          3.2285868396        4.0177709499        0.1820537005
 C          4.5675618595        3.6706595198        0.2849440603
 C          4.9647843794        2.3738458098        0.0048403800
 H          5.9941935994        2.0595535998        0.0677228199
 H          5.2987139596        4.4041447397        0.5846370404
 H          2.9155487996        5.0259442699        0.4041257208
 H          1.2445107795        3.3364378102       -0.2918666095
 H          1.9559434093        1.0372983402       -0.8038759800
 H          4.8868827293       -0.7110172405        1.4933378693
 H          3.3835753895       -0.0058240907        3.1407517996
 H          1.0591105496       -0.0358655908        3.9761417598
 H         -0.7367599906       -1.0166630203        2.5973509997
 C         -0.5834764409       -2.1388413298        0.1945064095
 H         -1.0877002809       -2.8917367299        0.8180571493
 C         -0.1581870010       -2.7910346996       -1.1032766207
 C          0.3892359089       -4.1859250396       -1.0927121011
 C         -0.9754812811       -3.9203244994       -1.6518573409
 H         -1.1177996712       -3.9821118891       -2.7203985209
 H         -1.8344743211       -4.2359836695       -1.0777442209
 H          1.1884265988       -4.4292600995       -1.7766489712
 H          0.4577288189       -4.6877123398       -0.1392990612
 H          0.2589732190       -2.0869233694       -1.8151504406
 O         -3.2874497808       -2.2663677398        1.0872048796
