  62
        -98.93745534
 C         -2.4502515206       -0.9868319811       -0.1264415764
 C         -3.5890512124       -0.8659058370        0.7019635918
 C         -4.6770530004       -0.0046081592        0.2073431161
 C         -4.5353164014        0.6231954143       -0.9752713140
 C         -5.4812231058        1.5207609555       -1.7458134320
 C         -6.7108926732        2.1241130653       -1.0719258434
 C         -6.4040026471        3.1556766707        0.0130740117
 H         -5.9855994261        4.0462849644       -0.4625248351
 H         -7.3451019778        3.4430093878        0.4870746758
 C         -5.4217060277        2.7056618054        1.0915723088
 H         -5.2940061082        3.5338832208        1.7939310087
 H         -4.4454764400        2.5131485280        0.6416722620
 C         -5.8493889450        1.4785114183        1.8942274935
 H         -5.1467178548        1.3674332782        2.7245867317
 H         -6.8422061122        1.6431592166        2.3173866143
 C         -5.8609565633        0.1498132517        1.1182162757
 H         -5.7963622907       -0.6652339373        1.8450266257
 H         -6.7891698131        0.0213015232        0.5665987813
 H         -7.2779970860        2.6309829730       -1.8574867357
 H         -7.3502406271        1.3383401512       -0.6805799886
 H         -5.8138797707        0.9302336301       -2.6067045808
 H         -4.8615525786        2.3282079503       -2.1485437029
 O         -3.4131502961        0.4755793520       -1.7395586239
 C         -2.3490217631       -0.3174074335       -1.3440728660
 O         -1.3996740517       -0.3417264977       -2.1496835211
 O         -3.6976281492       -1.4572809235        1.8101080048
 C         -1.2982368029       -1.8641285042        0.3286320141
 C         -0.0486045035       -1.0317217633        0.4743829305
 C         -0.0766641948        0.0681772795        1.3288440699
 C          1.0399999508        0.8631053739        1.4960730186
 C          2.2118764898        0.5816784083        0.8144842757
 C          2.2546107562       -0.5162372870       -0.0321252596
 C          1.1305762100       -1.3183852236       -0.1932237463
 H          1.1816169329       -2.1664871625       -0.8580660758
 N          3.4361901173       -0.8028002753       -0.7337581905
 S          4.8943996900       -0.8105837786        0.0923829625
 O          5.7622176006       -1.6694425362       -0.6836012870
 O          4.7142496480       -1.1672059988        1.4805614290
 C          5.4752150306        0.8675414262       -0.0368798247
 C          5.5717928772        1.4299150593       -1.2945751585
 C          6.0353077324        2.7304853775       -1.4118310301
 C          6.3950388874        3.4417785187       -0.2766880538
 C          6.2954193447        2.8618472333        0.9786501262
 C          5.8317170969        1.5613681329        1.1028407986
 H          5.7324263226        1.0716540277        2.0585627750
 H          6.5761579162        3.4162222165        1.8598259042
 H          6.7554170627        4.4539787954       -0.3713446048
 H          6.1137207880        3.1849113804       -2.3864161269
 H          5.2846739876        0.8445043447       -2.1521480800
 H          3.3635247548       -1.5912770246       -1.3597722046
 H          3.0860090025        1.2002245385        0.9362738075
 H          0.9996954129        1.7131721913        2.1603155191
 H         -0.9925554485        0.2904307002        1.8596418667
 H         -1.5834451421       -2.2247187460        1.3279185714
 C         -1.1448479500       -3.0563905428       -0.5914110862
 C         -0.4973682382       -4.3126411569       -0.0920195569
 C         -1.9749144054       -4.2777975658       -0.3395395850
 H         -2.3695442337       -4.8169363325       -1.1876489536
 H         -2.6376683352       -4.2603383010        0.5131493088
 H          0.1220816121       -4.8806946937       -0.7700012095
 H         -0.1535138460       -4.3243269750        0.9313762613
 H         -0.9813634399       -2.7699976901       -1.6244927294
