  62
        -98.92937038
 C          2.0516220157        1.1091992186        0.3036649975
 C          2.7763247416        0.2848579723        1.2008834210
 C          4.1297108658       -0.1295870422        0.7964676418
 C          4.6003467314        0.2509658469       -0.4056266106
 C          5.9399676563        0.0213423115       -1.0735697423
 C          6.9225974257       -1.0071686797       -0.5204555286
 C          6.4699136844       -2.4606038500       -0.6578771112
 H          6.4916970390       -2.7321199927       -1.7163664523
 H          7.1909666175       -3.0947220298       -0.1374460219
 C          5.0691587388       -2.7677915400       -0.1342408610
 H          4.3302707599       -2.2064405201       -0.7100835994
 H          4.8722505906       -3.8291993568       -0.3087084328
 C          4.8519674463       -2.4940634680        1.3525788765
 H          5.6049556923       -3.0253345479        1.9381186720
 H          3.8725356730       -2.8991270293        1.6217071642
 C          4.8680522664       -1.0114660129        1.7622196728
 H          4.3475891042       -0.9213742123        2.7201677576
 H          5.8843495900       -0.6535173280        1.9086885877
 H          7.8467037637       -0.8948168901       -1.0939771904
 H          7.1650263538       -0.7786147116        0.5132309008
 H          5.7146455398       -0.2232763658       -2.1165361731
 H          6.4338629206        0.9992421165       -1.0876235600
 O          3.8559772656        1.0174017011       -1.2514191864
 C          2.5797598652        1.4658642429       -0.9372997880
 O          2.0622364809        2.1461642956       -1.8384324578
 H         -0.6534175173       -0.6858940401        1.1929543133
 C         -0.9704957493       -0.2421973072        0.2579085355
 C         -0.3931915034        0.9561033850       -0.1523410490
 C         -0.8057397793        1.4946123425       -1.3661187442
 C         -1.7611867046        0.8510335837       -2.1345609463
 C         -2.3286712539       -0.3395584005       -1.7205418477
 C         -1.9214342726       -0.8934547477       -0.5139083647
 N         -2.4930029177       -2.1012811046       -0.0774925422
 S         -4.1589091411       -2.2442277607       -0.1675332106
 O         -4.5149797195       -3.1939174059        0.8630893913
 O         -4.5434595525       -2.5996065021       -1.5107375368
 C         -4.7806795030       -0.6199760606        0.2315547380
 C         -4.4954214291       -0.1052732674        1.4809499425
 C         -4.9291868692        1.1721442302        1.7948850493
 C         -5.6366478290        1.9102325567        0.8580694256
 C         -5.9206153999        1.3771195067       -0.3893816527
 C         -5.4873245606        0.1002610564       -0.7095272467
 H         -5.6836971959       -0.3508227556       -1.6684807333
 H         -6.4728421667        1.9524832911       -1.1147626350
 H         -5.9683614389        2.9067219465        1.1035560250
 H         -4.7094813359        1.5886618433        2.7647582822
 H         -3.9483825032       -0.7071077763        2.1889238804
 H         -2.1445219932       -2.4214563223        0.8140239785
 H         -3.0649123870       -0.8546495146       -2.3159618155
 H         -2.0634484922        1.2846595908       -3.0756984792
 H         -0.3538033669        2.3969028794       -1.7369732080
 C          0.6618995736        1.5484913515        0.7484674531
 H          0.5437194228        1.0480145313        1.7220514474
 C          0.5883920791        3.0369858032        1.0694554880
 C          0.6466517119        4.1642388262        0.0842019252
 C         -0.6285926304        3.8753885536        0.8156933234
 H         -0.9440408409        4.5644072650        1.5847877472
 H         -1.4395518578        3.4267719705        0.2634836505
 H          1.2137127150        5.0388793073        0.3715045492
 H          0.7310721303        3.9332589871       -0.9637988297
 H          1.1091095949        3.2309982734        2.0043004487
 O          2.3129764037       -0.0862772707        2.3144939322
