  62
        -98.94220252
 C         -2.5074134351       -0.6482372378       -0.5172484214
 C         -1.5173009351        0.2273031914       -1.0259912859
 C         -1.7959882167        1.6635799096       -0.8922665587
 C         -2.9568706988        2.0648268869       -0.3448055709
 C         -3.3348893834        3.4931857427       -0.0848127564
 C         -2.9052251749        3.9308199146        1.3227958245
 C         -1.4563628903        3.5842391882        1.6697407441
 H         -1.2624365914        3.9700570687        2.6732577056
 H         -1.3438393278        2.4981676965        1.7229539677
 C         -0.4123522108        4.1499423248        0.6968481318
 H         -0.8501025153        4.9627360824        0.1152359680
 H          0.4115722189        4.5700746135        1.2774207413
 C          0.1971094979        3.1150336014       -0.2511853392
 H          0.5539357141        2.2579338198        0.3283063332
 H          1.0696464324        3.5675216796       -0.7310266802
 C         -0.7337941556        2.6156640889       -1.3642227231
 H         -1.1801370305        3.4689492087       -1.8786634489
 H         -0.1270099250        2.0593873627       -2.0839386334
 H         -3.0516064387        5.0091034097        1.4086376027
 H         -3.5551993986        3.4407024766        2.0514194786
 H         -2.8675764332        4.1304092711       -0.8328404478
 H         -4.4192224668        3.5838386995       -0.1678576684
 O         -3.9078954150        1.1964935690        0.0851837966
 C         -3.6913643338       -0.1697689608        0.0513376018
 O         -4.6180157981       -0.8478695529        0.5376374285
 O         -0.4476210505       -0.1533366281       -1.5703082387
 C         -2.2771196266       -2.1525572061       -0.4467334899
 C         -1.1828029485       -2.3208921219        0.5788128250
 C         -1.5082053706       -2.3291167164        1.9324699671
 C         -0.5209456051       -2.2701218417        2.8990364199
 C          0.8094480528       -2.1627230352        2.5328554005
 C          1.1406342953       -2.1621500735        1.1859514279
 C          0.1554469812       -2.2858272760        0.2177464484
 H          0.4319818388       -2.2773470575       -0.8243116304
 N          2.4890525497       -1.9541973959        0.8226599921
 S          3.0460255807       -0.3969256326        1.2119855338
 O          4.1227923544       -0.5423838794        2.1658903407
 O          1.9402315618        0.4220398450        1.6487936838
 C          3.7020568271        0.2122459321       -0.3316748252
 C          5.0658489287        0.3825052492       -0.4722686853
 C          5.5618271615        0.8532667637       -1.6776454228
 C          4.6896002242        1.1444355032       -2.7155450006
 C          3.3235013115        0.9649795213       -2.5582339879
 C          2.8180711123        0.4919878460       -1.3569389086
 H          1.7578536255        0.3401960021       -1.2138532884
 H          2.6428792899        1.1867289488       -3.3649255598
 H          5.0748665380        1.5125070648       -3.6533991352
 H          6.6235827557        0.9914263878       -1.8031237335
 H          5.7021619504        0.1448140429        0.3645062680
 H          2.6404881223       -2.1241334913       -0.1631520759
 H          1.5922484010       -2.0463703321        3.2666007920
 H         -0.7910041065       -2.2741934608        3.9446788850
 H         -2.5513392075       -2.3436175545        2.2183004645
 H         -3.2029073556       -2.5876252742       -0.0497577429
 C         -1.9799052958       -2.7708464811       -1.7951523149
 C         -2.0194000559       -4.2622536764       -1.9366625113
 C         -3.0904500273       -3.4212992903       -2.5617236541
 H         -3.1035420926       -3.3163458205       -3.6361677913
 H         -4.0727922470       -3.4256446300       -2.1123788588
 H         -1.2979530447       -4.7394858532       -2.5819513961
 H         -2.2741724047       -4.8380444573       -1.0596811101
 H         -1.2414748677       -2.2259007301       -2.3685097768
