  62
        -98.94904385
 C         -0.8900016007       -1.3524576195        0.2373550059
 C         -1.4468664054       -0.2792666871        0.9696961525
 C         -2.2758496869        0.6598925848        0.2028941531
 C         -2.3985823099        0.4920139282       -1.1266328470
 C         -3.2178267530        1.3706675913       -2.0271673757
 C         -4.6463067303        0.8324661636       -2.1866874326
 C         -5.3250306670        0.4905052464       -0.8602969826
 H         -6.3375119248        0.1524186934       -1.0908899192
 H         -4.8013196241       -0.3508066756       -0.4006919838
 C         -5.3884066658        1.6550489872        0.1377351955
 H         -5.2288780689        2.5989589644       -0.3846600265
 H         -6.3901258088        1.6895295640        0.5710794467
 C         -4.4029788386        1.5460743672        1.3026680210
 H         -4.4925776741        0.5600456706        1.7650474534
 H         -4.6846995392        2.2877190734        2.0547355604
 C         -2.9265479055        1.7841507070        0.9596321567
 H         -2.8213559632        2.7278686195        0.4194242284
 H         -2.3783202960        1.8581990934        1.9032554811
 H         -5.2382546890        1.5780631304       -2.7208092174
 H         -4.6083080896       -0.0725434115       -2.7974357880
 H         -3.2414866537        2.3793034521       -1.6182167508
 H         -2.7334312044        1.3994721507       -3.0052059630
 O         -1.8215025706       -0.5330251322       -1.8027608668
 C         -1.0545275644       -1.4797928466       -1.1426426529
 O         -0.5938772877       -2.3739183330       -1.8783041887
 H          1.3792681425       -0.1754092899        0.3497699682
 C          1.9308554047       -1.0640025849        0.0790632524
 C          1.3776023180       -2.3116347886        0.3395905116
 C          2.1080275303       -3.4439143514        0.0052510112
 C          3.3405459901       -3.3212387368       -0.6135872878
 C          3.8582012436       -2.0781253440       -0.9264826851
 C          3.1417444247       -0.9380243054       -0.5786577025
 N          3.6303702353        0.3444490757       -0.8666345110
 S          2.5653821599        1.5876782126       -1.2148815731
 O          1.3818866845        1.1287191611       -1.9042991560
 O          3.3765554350        2.5548895357       -1.9269453870
 C          2.1493531222        2.2651302495        0.3771503725
 C          3.1685695334        2.4928851842        1.2809274656
 C          2.8597262618        3.0530345930        2.5096368948
 C          1.5461908622        3.3823904256        2.8083950259
 C          0.5361006045        3.1542202212        1.8873901163
 C          0.8374351237        2.5878001659        0.6590277708
 H          0.0770536565        2.3741824386       -0.0773371585
 H         -0.4855509975        3.4068992026        2.1204128651
 H          1.3050762522        3.8181083677        3.7651121027
 H          3.6419215740        3.2308290943        3.2299332535
 H          4.1765277291        2.2272472771        1.0096651638
 H          4.4531055509        0.3710865557       -1.4510164846
 H          4.8028168983       -1.9861723845       -1.4404368312
 H          3.8961245773       -4.2086706188       -0.8765675692
 H          1.7067010643       -4.4223205076        0.2124867028
 C          0.0012656830       -2.3496604033        0.9565295721
 H          0.0727806850       -1.9862625533        1.9927123823
 C         -0.6244673645       -3.7281169917        0.9624906826
 C         -0.3340003142       -4.6859787722        2.0782866445
 C         -1.6815396239       -4.0388549898        1.9781376818
 H         -2.5249400752       -4.6416117927        1.6763368730
 H         -1.9311987269       -3.2616696360        2.6856030711
 H         -0.2541267566       -5.7374660255        1.8472022583
 H          0.3294808464       -4.3534355361        2.8619856325
 H         -0.7573291194       -4.1268934619       -0.0371606846
 O         -1.2536936964       -0.1094763850        2.2042856197
