  62
        -98.93937316
 C          2.4315768826        0.9222233134        0.5731057973
 C          2.4509832099       -0.3800972084        0.0140388917
 C          3.6761020129       -1.1572960998        0.2584575746
 C          4.6564897668       -0.6503069459        1.0258019755
 C          5.9527195017       -1.3288504602        1.3763406941
 C          7.0458874276       -1.1709483901        0.3105304004
 C          6.8319567564       -1.9851978655       -0.9660926881
 H          7.7673506497       -1.9507574527       -1.5281784291
 H          6.6478516530       -3.0275637854       -0.7041310846
 C          5.6982440429       -1.4702616239       -1.8639722934
 H          5.4475388814       -0.4447281990       -1.5825057741
 H          6.0397143117       -1.4412780249       -2.9012290095
 C          4.4268911218       -2.3188037170       -1.8293074965
 H          4.6381771744       -3.3112139423       -2.2335554650
 H          3.6816349873       -1.8458322348       -2.4743249307
 C          3.8120180335       -2.4805355569       -0.4326091373
 H          2.8096889384       -2.9011269257       -0.5444607000
 H          4.4140688784       -3.1633963421        0.1661967757
 H          7.1364154351       -0.1121427247        0.0566393334
 H          7.9893980836       -1.4853865686        0.7625434747
 H          6.3045753902       -0.8671107428        2.3014237561
 H          5.7742242267       -2.3881759919        1.5625345866
 O          4.5655931376        0.5752456948        1.6080105623
 C          3.4706810227        1.3919259628        1.3822633621
 O          3.5326655211        2.4959175559        1.9598428877
 H         -0.6638964070        1.0311457156       -1.4073627749
 C         -0.9242459886        0.8281389444       -0.3797209832
 C         -0.0446018536        1.1729443953        0.6339781045
 C         -0.3922186702        0.8699225805        1.9470490199
 C         -1.5891578623        0.2422365026        2.2357096288
 C         -2.4654582003       -0.0977170182        1.2200064868
 C         -2.1244127091        0.1922309543       -0.0934703345
 N         -3.0153160580       -0.1611329577       -1.1275614519
 S         -4.5289757282        0.5668594163       -1.0899953024
 O         -5.0062010720        0.5347559436       -2.4556795749
 O         -4.4697439775        1.8682257785       -0.4629467276
 C         -5.5174527890       -0.5372646200       -0.1038336480
 C         -6.1156424535       -0.0764779752        1.0524752224
 C         -6.8910747419       -0.9497192776        1.7993734220
 C         -7.0539197346       -2.2606780414        1.3783756464
 C         -6.4474551005       -2.7072857840        0.2135069604
 C         -5.6717904854       -1.8392868633       -0.5382037539
 H         -5.1869749820       -2.1445365990       -1.4505368437
 H         -6.5766346250       -3.7274629668       -0.1103751464
 H         -7.6573724472       -2.9383998365        1.9614365811
 H         -7.3632829693       -0.6045888886        2.7051330545
 H         -5.9564422636        0.9496978566        1.3426403404
 H         -2.6093963538       -0.0742213859       -2.0485299320
 H         -3.3995033496       -0.5908391188        1.4355809758
 H         -1.8431728346        0.0151289577        3.2599821939
 H          0.2937431750        1.1339846323        2.7408397312
 C          1.2643935193        1.8731928888        0.3688829953
 H          1.3904787242        2.6452250941        1.1454122247
 C          1.2851711588        2.6019632833       -0.9675353216
 C          2.5814154036        3.0649384092       -1.5608498304
 C          1.7968845892        1.9786356522       -2.2298797011
 H          1.2895397446        2.2105001902       -3.1555226883
 H          2.1684000695        0.9675140985       -2.1792695854
 H          3.4891523208        2.7957914948       -1.0402824410
 H          2.6169335837        4.0387911557       -2.0253284948
 H          0.4411640038        3.2789859307       -1.0670922174
 O          1.5139456548       -0.8812767191       -0.6579609962
