  62
        -98.94037200
 C         -2.3136958041       -0.4016915209        0.1353222686
 C         -3.5466747134       -0.9821110430        0.5188352716
 C         -4.6825462562       -0.0587810492        0.6387589795
 C         -4.4880293123        1.2539051155        0.4155528899
 C         -5.5644327375        2.2990087453        0.4552787917
 C         -6.1914258818        2.5020207063       -0.9311204234
 C         -6.6043302988        1.2000976937       -1.6177170444
 H         -7.0625306132        1.4668996878       -2.5725505780
 H         -5.7085592438        0.6168824471       -1.8435840856
 C         -7.5797906279        0.3364744352       -0.8058349700
 H         -8.3717151325       -0.0153614249       -1.4703063312
 H         -8.0521409127        0.9405913557       -0.0304723123
 C         -6.9501458699       -0.9036796578       -0.1685750914
 H         -7.7570426154       -1.5490537962        0.1886106272
 H         -6.3951329037       -1.4628485261       -0.9261074063
 C         -6.0144166259       -0.6425596701        1.0186130121
 H         -6.5178060536       -0.0097458597        1.7522123385
 H         -5.7957657252       -1.6063180831        1.4876120847
 H         -5.4638545598        3.0094812984       -1.5687641856
 H         -7.0619761447        3.1517361147       -0.8246114735
 H         -6.3277897580        2.0002713396        1.1709130541
 H         -5.1179224222        3.2389846750        0.7836376856
 O         -3.2823043812        1.7785475019        0.0779190656
 C         -2.1677510277        0.9681405784       -0.0835947868
 O         -1.1346671364        1.5805997802       -0.4132077967
 H          1.4779142563       -0.4439383054       -0.5828556845
 C          1.2411038011       -0.4519780928        0.4673533332
 C         -0.0072533042       -0.8583782048        0.9085063917
 C         -0.2687297189       -0.8480712297        2.2770074764
 C          0.6944577391       -0.4364915855        3.1766701205
 C          1.9408542635       -0.0308822370        2.7321250261
 C          2.2099318201       -0.0311861583        1.3687298920
 N          3.4514745055        0.4174811123        0.8918321534
 S          4.0996770333       -0.2392763322       -0.5174763202
 O          3.4619428679        0.3576648338       -1.6634913815
 O          4.0732789073       -1.6839705975       -0.4522301986
 C          5.7753395032        0.3576582191       -0.3902813424
 C          6.0195345188        1.6852628974       -0.6885654319
 C          7.3112669739        2.1720862201       -0.5691776404
 C          8.3319857166        1.3281141031       -0.1564179347
 C          8.0721054715       -0.0018804486        0.1373009752
 C          6.7815736278       -0.4949893048        0.0218728727
 H          6.5331813975       -1.5226319663        0.2329456956
 H          8.8684033065       -0.6556180259        0.4546883719
 H          9.3367195183        1.7096141895       -0.0658808926
 H          7.5171787683        3.2051648655       -0.7986488792
 H          5.1960288625        2.2998585386       -1.0136740033
 H          4.1479864154        0.5016821420        1.6193247169
 H          2.6941732941        0.2936896555        3.4337741769
 H          0.4769424138       -0.4351782851        4.2342705282
 H         -1.2434428221       -1.1656382644        2.6223536196
 C         -1.1018358121       -1.3016633029       -0.0296269824
 H         -1.4359148834       -2.3023436172        0.2829164442
 C         -0.6735663675       -1.3652628150       -1.4798608392
 C          0.1272787448       -2.5328235059       -1.9707084256
 C         -1.3034473495       -2.3763667301       -2.3881608622
 H         -1.5156340022       -2.0917889461       -3.4078323487
 H         -2.0370302681       -3.0419978046       -1.9570989855
 H          0.9055523191       -2.3532065814       -2.6975245972
 H          0.3695124023       -3.3057422145       -1.2567549828
 H         -0.4536583104       -0.3881741776       -1.8970533018
 O         -3.6886755053       -2.2124837011        0.7537918709
