  62
        -98.92490614
 C         -2.2826330334       -1.2920138877        0.4642703828
 C         -2.7183547355       -0.4926117967       -0.6190216297
 C         -3.6979870495        0.5690308615       -0.3012403165
 C         -4.0895894952        0.7452785164        0.9723340391
 C         -5.0703672481        1.7437753025        1.5336927127
 C         -4.9602889667        3.1856812754        1.0142149121
 C         -6.1232604065        3.5965880240        0.1094501730
 H         -7.0459954294        3.1810162927        0.5197841988
 H         -6.2172916112        4.6845571582        0.1342136843
 C         -5.9875570185        3.1779860735       -1.3534988430
 H         -6.9340101968        3.4036053314       -1.8504643853
 H         -5.2164764964        3.7849350620       -1.8328418597
 C         -5.6520233287        1.7030568980       -1.5835803596
 H         -6.2143631568        1.0715106234       -0.8967666180
 H         -5.9751934736        1.4412923541       -2.5933341630
 C         -4.1520595890        1.3897399385       -1.4775478723
 H         -3.5738801071        2.3178414517       -1.5028504117
 H         -3.8337420995        0.8152150581       -2.3528659435
 H         -4.9560872362        3.8509666834        1.8792413986
 H         -4.0112496084        3.3223645571        0.4981828371
 H         -6.0823391833        1.3661621478        1.3673886863
 H         -4.9057399238        1.7249437698        2.6135285924
 O         -3.6225953457       -0.0370389813        1.9892026154
 C         -2.7183611207       -1.0559342236        1.7684238500
 O         -2.3766691226       -1.6705786336        2.8014097944
 O         -2.3242332074       -0.6408612921       -1.8018132450
 C         -1.2711127547       -2.4194510127        0.2839781055
 C         -0.0028970646       -1.8341582842       -0.2886863056
 C          0.3771725099       -1.8234096582       -1.6245535685
 C          1.5499275970       -1.1994769993       -2.0173265182
 C          2.3653854226       -0.5610626568       -1.1025252262
 C          1.9948227332       -0.5539885502        0.2357587482
 C          0.8284406966       -1.1927648570        0.6267701636
 H          0.5410215912       -1.1787805691        1.6716745633
 N          2.7926732249        0.1175454332        1.1776318314
 S          4.4486728320       -0.1516729597        1.1776838123
 O          4.7705934969       -1.4710216348        0.6855331164
 O          4.8800534437        0.1559743628        2.5237983046
 C          5.0847231524        1.0877794419        0.0688907679
 C          5.8617477494        0.7152885093       -1.0103872883
 C          6.3530355525        1.6996347993       -1.8539248430
 C          6.0611831696        3.0316821968       -1.6037945521
 C          5.2820265622        3.3895013136       -0.5135054635
 C          4.7887400288        2.4104958837        0.3339479189
 H          4.1835472016        2.6469060887        1.1933335712
 H          5.0574045654        4.4264253253       -0.3217458394
 H          6.4434704521        3.7959318412       -2.2618688752
 H          6.9597651579        1.4238458257       -2.7014037764
 H          6.0594502477       -0.3330666467       -1.1681134154
 H          2.4231279205        0.0934734316        2.1168154460
 H          3.2735194379       -0.0699682585       -1.4112203824
 H          1.8252134803       -1.2031962749       -3.0610773346
 H         -0.2477171899       -2.2700627941       -2.3757995739
 H         -1.0257206444       -2.7289116901        1.3123816155
 C         -1.9178844390       -3.6459143143       -0.3445438993
 C         -2.3263811154       -3.7955600530       -1.7775816505
 C         -1.1995248621       -4.6192054753       -1.2299316614
 H         -1.3722789995       -5.6729824882       -1.0680409776
 H         -0.1904943370       -4.3830431090       -1.5279751852
 H         -3.2681750393       -4.2891027248       -1.9729947741
 H         -2.1257437384       -2.9829268782       -2.4552237178
 H         -2.6090140592       -4.0835141345        0.3732321364
