  62
        -98.93756418
 C         -2.2404523654       -0.8135951463        0.0443380237
 C         -3.5699422137       -1.2343871012        0.3066902259
 C         -4.6333397947       -0.4774735620       -0.3620854297
 C         -4.3124746934        0.5547463897       -1.1625014097
 C         -5.2792286865        1.4096561791       -1.9362659420
 C         -5.8916414670        2.5548908896       -1.1181321487
 C         -6.9265784931        2.1291767814       -0.0758753369
 H         -7.6806158385        1.5004248462       -0.5503118549
 H         -7.4274084532        3.0368133024        0.2667123611
 C         -6.3376933176        1.4016851700        1.1408855172
 H         -6.7699425786        1.8132950388        2.0557170164
 H         -5.2610915123        1.5822631433        1.1866982162
 C         -6.5879383584       -0.1063003287        1.1605259591
 H         -7.6595294321       -0.2989193842        1.2466208334
 H         -6.0983410061       -0.5237629159        2.0439621216
 C         -6.0556096132       -0.8509784465       -0.0708043401
 H         -6.6863803520       -0.6475359440       -0.9358531932
 H         -6.0817242957       -1.9230652855        0.1389173917
 H         -6.3753472187        3.2353954796       -1.8226572999
 H         -5.0838056315        3.1033523565       -0.6279954027
 H         -6.0748671711        0.7855239279       -2.3441125820
 H         -4.7155299732        1.8420800108       -2.7657892803
 O         -3.0267824542        0.9407673233       -1.3751877157
 C         -1.9607303820        0.2894957832       -0.7634280220
 O         -0.8522669179        0.7945399204       -1.0245122392
 O         -3.8534102138       -2.1971653003        1.0674546744
 C         -1.1181431428       -1.5765786314        0.7245159586
 C         -0.1174723200       -0.6189573173        1.3203227979
 C         -0.5393101901        0.2395772758        2.3323225378
 C          0.3326584272        1.1523928669        2.8916068971
 C          1.6433414182        1.2254611460        2.4547104632
 C          2.0790664530        0.3652112959        1.4536353819
 C          1.2011148472       -0.5555711381        0.8984928099
 H          1.5521388192       -1.1922345818        0.1052411584
 N          3.4259658881        0.3940403243        1.0444009937
 S          3.8766048112        0.1819721369       -0.5671135174
 O          3.3781246710        1.2642997876       -1.3870661156
 O          3.5476867742       -1.1557367611       -0.9867295974
 C          5.6461216404        0.3278377262       -0.3839197542
 C          6.3440244405       -0.7512488826        0.1244933426
 C          7.7149971369       -0.6435533021        0.2941694551
 C          8.3625469129        0.5354772600       -0.0445976549
 C          7.6496325915        1.6094681036       -0.5552703099
 C          6.2776921102        1.5080265184       -0.7264786357
 H          5.6836013535        2.3132837310       -1.1281679537
 H          8.1558281108        2.5236166856       -0.8208082713
 H          9.4299133835        0.6168002587        0.0875133780
 H          8.2730719434       -1.4774787161        0.6884137976
 H          5.7993883724       -1.6489868676        0.3658025241
 H          3.9127758640        1.1993775484        1.4167332266
 H          2.3234673255        1.9456087563        2.8845041724
 H         -0.0104286952        1.8188108975        3.6689763103
 H         -1.5681468568        0.1901925516        2.6636116825
 H         -1.6136476051       -2.1098894084        1.5537897099
 C         -0.4753374035       -2.6413909215       -0.1510201749
 C         -1.2504700792       -3.3393223431       -1.2269899380
 C         -0.1413710146       -2.4006705460       -1.5914367995
 H          0.7827546004       -2.8071976370       -1.9768484439
 H         -0.3917946586       -1.4374219779       -2.0090458134
 H         -1.0957489546       -4.3987348877       -1.3653077001
 H         -2.2672399422       -3.0184692603       -1.4011002341
 H          0.2247315741       -3.2548663199        0.4086978283
