  62
        -98.94522225
 C         -2.4636288296       -1.2229048506       -0.0722034596
 C         -3.5022497197       -0.7510943605        0.7709992202
 C         -4.3172722598        0.3450266892        0.2387746198
 C         -4.0580053398        0.8331151989       -0.9877657403
 C         -4.8027338100        1.9464223786       -1.6727945406
 C         -4.3154401702        3.3484568788       -1.2816249710
 C         -4.7044091304        3.8029101091        0.1258773589
 H         -4.4911244006        4.8719633692        0.1862993686
 H         -5.7787955804        3.6765408790        0.2628784089
 C         -3.9512694004        3.0859371295        1.2553107891
 H         -3.0603750203        2.6002602796        0.8490613793
 H         -3.6065683905        3.8210143198        1.9861158490
 C         -4.7810798402        2.0491240896        2.0129680793
 H         -5.6010921304        2.5471946896        2.5347855992
 H         -4.1390898202        1.5800137699        2.7626438595
 C         -5.3661689400        0.9393810093        1.1295166096
 H         -5.7403768099        0.1447860394        1.7794059198
 H         -6.1942070200        1.3268900290        0.5368029994
 H         -3.2283295402        3.3824034590       -1.3888284409
 H         -4.7415217103        4.0538234585       -1.9988728612
 H         -4.6445066699        1.8135244784       -2.7451886606
 H         -5.8692723500        1.8584562385       -1.4645332607
 O         -3.0650369997        0.3416485289       -1.7746311901
 C         -2.2267191396       -0.6721342109       -1.3316815198
 O         -1.3437203295       -0.9873717209       -2.1540671996
 H          0.6818511107       -2.1325451803       -1.1071471292
 C          0.8080884805       -1.6509243801       -0.1502973993
 C         -0.2219595395       -1.6795402600        0.7770663306
 C         -0.0459850197       -1.0180803496        1.9895396505
 C          1.1315029301       -0.3484773294        2.2638743604
 C          2.1535114202       -0.3132284395        1.3307798604
 C          1.9808065404       -0.9559146198        0.1129199506
 N          3.0059756604       -0.9023428499       -0.8502165394
 S          3.5968367902        0.6199642901       -1.2503229797
 O          2.6072995800        1.6525977500       -1.0434189800
 O          4.1198545903        0.4856037999       -2.5927512296
 C          4.9595215501        0.8470658206       -0.1247640997
 C          5.0163755999        1.9759831809        0.6688026100
 C          6.0900373498        2.1361630713        1.5311236301
 C          7.0829169899        1.1699940514        1.5836098604
 C          7.0126267602        0.0431743012        0.7778614107
 C          5.9427920803       -0.1223319392       -0.0871125094
 H          5.8513562904       -0.9807432694       -0.7312173091
 H          7.7867096403       -0.7058702587        0.8215126809
 H          7.9163412299        1.2962314217        2.2564567604
 H          6.1459875696        3.0119331714        2.1575421798
 H          4.2172598897        2.6968598407        0.5983373298
 H          2.7809895406       -1.4146165701       -1.6918662292
 H          3.0692514101        0.2188600508        1.5306619304
 H          1.2546357500        0.1565252809        3.2099061203
 H         -0.8548887798       -1.0213994496        2.7067503904
 C         -1.5548440594       -2.3154649703        0.4692266707
 H         -2.0119821794       -2.6280005701        1.4175553008
 C         -1.4694644692       -3.5155907805       -0.4489804990
 C         -0.8897278190       -4.7947370803        0.0744360414
 C         -2.3596910590       -4.6941118006       -0.1975450487
 H         -2.7656647588       -5.2216405109       -1.0476691486
 H         -3.0335592890       -4.6407410805        0.6448185012
 H         -0.2840538188       -5.3953632104       -0.5867491384
 H         -0.5642877390       -4.8074294000        1.1035305514
 H         -1.2772590191       -3.2564848907       -1.4828040290
 O         -3.7363355497       -1.2265660803        1.9132227903
