  62
        -98.94173687
 C         -1.7179485702       -0.1563174809        0.4197917181
 C         -2.8256269837       -0.9086507504        0.8898059102
 C         -4.1417764629       -0.2656815743        0.7861066226
 C         -4.2213178511        0.9913253801        0.3142129254
 C         -5.4994402917        1.7492817897        0.1042394341
 C         -6.0444078688        1.5368773287       -1.3151182853
 C         -6.1061236161        0.0697086806       -1.7403712624
 H         -5.0892024773       -0.3228410426       -1.8140176884
 H         -6.5338056836        0.0403955636       -2.7449155820
 C         -6.9302847841       -0.8282539740       -0.8069708807
 H         -7.5706372324       -1.4706085069       -1.4151421826
 H         -7.5837693515       -0.2150791427       -0.1854194229
 C         -6.0972383922       -1.7480670659        0.0877126507
 H         -5.3760757605       -2.2974702921       -0.5228665457
 H         -6.7692688535       -2.4826246733        0.5392188869
 C         -5.3382400072       -1.0597618906        1.2291575887
 H         -4.9507608399       -1.8409460920        1.8896770845
 H         -6.0251200258       -0.4341423593        1.8026265742
 H         -5.3987418549        2.0697683192       -2.0172171824
 H         -7.0420710982        1.9761921263       -1.3712559650
 H         -5.2971841665        2.8115845422        0.2511669639
 H         -6.2335205341        1.4239835791        0.8389469541
 O         -3.1335243620        1.7053116147       -0.0683248199
 C         -1.8555131354        1.1560461518       -0.0353800094
 O         -0.9674889779        1.9371918029       -0.4226522198
 O         -2.7160884358       -2.0646090353        1.3781182554
 C         -0.3518535104       -0.8154168369        0.4880190149
 C          0.6672589902        0.1256160473        1.0758597956
 C          0.5494948819        0.4915209723        2.4146188456
 C          1.4553316100        1.3591636247        2.9920618830
 C          2.5121711470        1.8630599073        2.2535923807
 C          2.6369286359        1.5062450705        0.9169158274
 C          1.7175956070        0.6429659828        0.3355844104
 H          1.8091382666        0.4222763571       -0.7139665126
 N          3.6946403927        1.9992269253        0.1422096891
 S          4.3691977966        1.0655481174       -1.0620272978
 O          5.7142516803        1.5828881775       -1.2041414083
 O          3.5611813828        1.0959785180       -2.2547453118
 C          4.4244188780       -0.5944347516       -0.4065410687
 C          5.0352778213       -0.8043772348        0.8140395061
 C          5.0747381257       -2.0885320530        1.3320505324
 C          4.5090146669       -3.1374809517        0.6234711000
 C          3.9084008086       -2.9127991303       -0.6052648438
 C          3.8634113882       -1.6292488284       -1.1262110636
 H          3.3997828223       -1.4083301544       -2.0745769010
 H          3.4710992060       -3.7300049844       -1.1568718611
 H          4.5373454119       -4.1362454392        1.0295393096
 H          5.5438047543       -2.2676071327        2.2859974342
 H          5.4728373836        0.0293346353        1.3382411430
 H          4.3795814997        2.5490596254        0.6380341851
 H          3.2232048662        2.5397356910        2.7024587385
 H          1.3451256057        1.6413023811        4.0282781024
 H         -0.2739677976        0.0949094654        2.9927936783
 H         -0.4902049914       -1.6490981511        1.1967676214
 C          0.1078584165       -1.4354694876       -0.8227568152
 C         -0.8754376651       -2.0021626783       -1.8011165056
 C         -0.1019524853       -0.7666303133       -2.1466377161
 H          0.6822359027       -0.8327502330       -2.8874454252
 H         -0.6161377565        0.1820447807       -2.1535910285
 H         -0.6279291780       -2.9244222676       -2.3045444284
 H         -1.9260321578       -1.8976156249       -1.5720176247
 H          1.0364136194       -1.9850013825       -0.6996584097
