  62
        -98.93249962
 C         -2.1747357788       -0.6721298734        0.0173042270
 C         -3.4573344679       -1.0861153157        0.4418912734
 C         -4.5867403581       -0.2022751496        0.0991985349
 C         -4.3393116538        0.9439939522       -0.5600777222
 C         -5.3152046771        1.9964734113       -1.0228737257
 C         -6.4146692172        2.4043550337       -0.0298673335
 C         -7.8095595274        1.9250751932       -0.4357327553
 H         -8.5518723813        2.5769576620        0.0301383655
 H         -7.9130188641        2.0346507215       -1.5172391564
 C         -8.1439012188        0.4880388111       -0.0394945823
 H         -9.0967399099        0.2296480682       -0.5073482638
 H         -8.2882678936        0.4356776534        1.0417731320
 C         -7.1024387630       -0.5595559190       -0.4378218333
 H         -7.6034285282       -1.5289616817       -0.4801491950
 H         -6.7184069125       -0.3565469240       -1.4368503224
 C         -5.9384212945       -0.6787991947        0.5573012308
 H         -6.1932643651       -0.1712559809        1.4920714410
 H         -5.7848373207       -1.7302449023        0.8192217689
 H         -6.4334445759        3.4944909082        0.0148307984
 H         -6.1649818322        2.0456242502        0.9673543610
 H         -4.6980176645        2.8630845527       -1.2706585980
 H         -5.7676106124        1.6599317116       -1.9591113803
 O         -3.0800148407        1.3089360779       -0.9405503471
 C         -1.9733891305        0.5216718449       -0.6726663054
 O         -0.8957302087        0.9894494689       -1.0893627952
 H          1.7148637251       -1.1350882360       -0.1767316400
 C          1.3674685634       -0.6601470630        0.7240825195
 C          0.0431929152       -0.7729325462        1.1159420103
 C         -0.3633585504       -0.1443573323        2.2907524688
 C          0.5286078978        0.5973604681        3.0391732333
 C          1.8432268943        0.7325338187        2.6281516818
 C          2.2636126035        0.0988780421        1.4654240306
 N          3.6116300418        0.1837120971        1.0631552231
 S          4.0112585311        0.5016370200       -0.5469376844
 O          3.5713556085        1.8285935283       -0.9215739550
 O          3.5707944681       -0.5871607933       -1.3792112127
 C          5.7903183842        0.4658834783       -0.4137623353
 C          6.5086597508        1.6457032439       -0.4349544146
 C          7.8882044415        1.5935357836       -0.3076075175
 C          8.5217175205        0.3692650911       -0.1588992313
 C          7.7869434769       -0.8071947061       -0.1397333116
 C          6.4081919454       -0.7618353128       -0.2686381370
 H          5.7972742469       -1.6492527302       -0.2676271795
 H          8.2832584057       -1.7574377135       -0.0258478744
 H          9.5950308735        0.3311372994       -0.0595671045
 H          8.4619392540        2.5061462599       -0.3252373693
 H          5.9736669742        2.5735695862       -0.5591743276
 H          4.1323242647        0.8239386581        1.6500748270
 H          2.5383344594        1.3239252708        3.2053260721
 H          0.1978775305        1.0836386923        3.9447754967
 H         -1.3949280118       -0.2397478555        2.6023845317
 C         -0.9769637142       -1.5522740713        0.3244195154
 H         -1.3639898027       -2.3615054941        0.9615982698
 C         -0.4274880902       -2.1580284884       -0.9492976590
 C          0.3034833032       -3.4654731771       -0.9056705847
 C         -1.0684702454       -3.3934699999       -1.5037890943
 H         -1.1722932367       -3.4835303882       -2.5747043475
 H         -1.8929888141       -3.8144214060       -0.9470755076
 H          1.1477525868       -3.6013598474       -1.5647070759
 H          0.4122932825       -3.9428988285        0.0563630538
 H         -0.0896281394       -1.4084738231       -1.6577219768
 O         -3.6547006133       -2.1532551746        1.0839616159
