  62
        -98.94524426
 C          2.4651769053        1.1962480506       -0.0179956933
 C          3.2385813629        0.4505435660        0.9024680626
 C          3.9107109138       -0.7391768686        0.3637742128
 C          3.7540240791       -1.0502476221       -0.9361796810
 C          4.3254657680       -2.2690923808       -1.5998430701
 C          3.3375110358       -3.4429342636       -1.5438646970
 C          2.7602254011       -3.6984655385       -0.1513780485
 H          2.1349767978       -2.8488885254        0.1355606161
 H          2.0996978015       -4.5653347392       -0.2266754840
 C          3.8140745349       -3.9477862614        0.9370938869
 H          3.4973939568       -4.8010851009        1.5404711126
 H          4.7659053583       -4.2122765561        0.4754371270
 C          4.0251603150       -2.7759841762        1.8976618883
 H          4.6212936508       -3.1322210741        2.7418486754
 H          3.0598822264       -2.4502035423        2.2941631904
 C          4.7444189562       -1.5536939630        1.3129413105
 H          4.9911874964       -0.8859940632        2.1435732054
 H          5.6745951333       -1.8680208031        0.8359219361
 H          3.8463142114       -4.3410448805       -1.8985213772
 H          2.5074859631       -3.2314182966       -2.2225858950
 H          5.2580317178       -2.5414339573       -1.1095840141
 H          4.5297234602       -2.0282435696       -2.6443146851
 O          3.0049035242       -0.3085337128       -1.7914982177
 C          2.3294372918        0.8227574161       -1.3554601749
 O          1.6636100934        1.3953772699       -2.2379137970
 O          3.3535902147        0.7598336766        2.1197926473
 C          1.7146879687        2.4213628218        0.4735892073
 C          0.2321482301        2.2151706266        0.2799343567
 C         -0.6023818879        3.1436222727       -0.3268981427
 C         -1.9485824231        2.8685963279       -0.4978880304
 C         -2.4917905540        1.6735306375       -0.0646170547
 C         -1.6676182573        0.7403189410        0.5511999386
 C         -0.3220136504        1.0202910179        0.7242139226
 H          0.3201254894        0.2887088907        1.2008565136
 N         -2.2127552687       -0.4768031950        1.0042776425
 S         -3.0400087269       -1.4125138286       -0.1229243127
 O         -2.9497698989       -2.7680803534        0.3758521637
 O         -2.5516606587       -1.1865645320       -1.4637547590
 C         -4.7234017810       -0.8516145934        0.0226510324
 C         -5.3839857612       -0.3609091268       -1.0864365224
 C         -6.6946040147        0.0697921704       -0.9490390294
 C         -7.3173686588        0.0017635600        0.2878742747
 C         -6.6406702773       -0.4968937930        1.3912519068
 C         -5.3309076690       -0.9299572906        1.2606784368
 H         -4.7705170544       -1.3272551306        2.0903437638
 H         -7.1285619825       -0.5487720232        2.3511983534
 H         -8.3363752299        0.3392969920        0.3923581468
 H         -7.2219624450        0.4572535515       -1.8059135425
 H         -4.8557683901       -0.3211943057       -2.0259235351
 H         -1.5461375870       -1.0505800704        1.5015409807
 H         -3.5375932082        1.4536208666       -0.2035167778
 H         -2.5837322390        3.5961648809       -0.9795928145
 H         -0.1971283342        4.0777259380       -0.6790077424
 H          1.9158591144        2.4732895397        1.5541575985
 C          2.2484466341        3.6767591760       -0.1821004817
 C          2.1522307228        4.9951749841        0.5241918193
 C          3.4808470297        4.3179567873        0.3793628739
 H          4.2029004364        4.7342812727       -0.3068477538
 H          3.9228464264        3.8614054290        1.2530051148
 H          1.9641183646        5.8816109320       -0.0623979071
 H          1.6934969863        5.0059314079        1.5012052650
 H          2.1399390963        3.6606290261       -1.2607062953
