  62
        -98.94115646
 C         -1.9729181149       -0.9209779218       -0.2051325666
 C         -2.4467353192       -0.2247587356        0.9368528030
 C         -2.6612203755        1.2185402110        0.7888910348
 C         -2.3605068191        1.8049529443       -0.3835825526
 C         -2.5463560606        3.2631285266       -0.6878648433
 C         -3.9309421512        3.5372209716       -1.2914091838
 C         -5.0811209729        2.9098416831       -0.5038666989
 H         -6.0099372145        3.1927963373       -1.0036574099
 H         -5.0003179413        1.8222244033       -0.5647445559
 C         -5.1437580222        3.3309857480        0.9709008012
 H         -6.1787707936        3.5708256392        1.2229116012
 H         -4.5543653876        4.2357740836        1.1227948866
 C         -4.6827468557        2.2558713653        1.9567571655
 H         -5.2025881214        1.3182141077        1.7455726206
 H         -4.9709595417        2.5710926786        2.9630155628
 C         -3.1748333729        1.9744911465        1.9822661592
 H         -2.6260859294        2.9105713229        2.1068711575
 H         -2.9678812905        1.3385985640        2.8480797292
 H         -3.9502884862        3.1347427878       -2.3068183374
 H         -4.0733204822        4.6177806343       -1.3507210960
 H         -1.7778781390        3.5617985282       -1.4033163732
 H         -2.4157934319        3.8361641668        0.2283181591
 O         -1.8922947249        1.1151921529       -1.4523781052
 C         -1.6770399245       -0.2563670717       -1.3959850553
 O         -1.2441422377       -0.7296302261       -2.4657074166
 O         -2.6853303936       -0.7961920797        2.0362750999
 C         -1.7047723085       -2.4029753331       -0.0136203333
 C         -0.3015534806       -2.6160685231        0.5086486265
 C         -0.0518334157       -3.5273745715        1.5285543789
 C          1.2272355166       -3.6922472380        2.0286885721
 C          2.2751862246       -2.9316433422        1.5427263297
 C          2.0364025406       -2.0226112613        0.5183407456
 C          0.7606461316       -1.8905848818       -0.0090511288
 H          0.6016677912       -1.1868759462       -0.8124718317
 N          3.0682496921       -1.2245572800       -0.0004700736
 S          2.6855617692        0.3727461257       -0.4087883256
 O          1.7077814623        0.9002644537        0.5163808507
 O          2.3523995246        0.4280957451       -1.8097529238
 C          4.2661096115        1.1588870578       -0.1452050250
 C          4.5260976442        1.7549420175        1.0744245197
 C          5.7675431327        2.3336782339        1.2871951794
 C          6.7242144649        2.3033290905        0.2836060962
 C          6.4487719792        1.7015712243       -0.9353718588
 C          5.2090327647        1.1221739314       -1.1551464729
 H          4.9443790211        0.6520228407       -2.0879812406
 H          7.1934449070        1.6823576981       -1.7145485429
 H          7.6894277158        2.7541286047        0.4516294203
 H          5.9824910041        2.8049122164        2.2326952955
 H          3.7476282754        1.7613548900        1.8205850477
 H          3.9212692655       -1.2795551090        0.5396781341
 H          3.2684218982       -3.0362489691        1.9520222909
 H          1.4062918383       -4.4023251158        2.8215293495
 H         -0.8725065028       -4.0927233797        1.9438657765
 H         -2.3996171342       -2.7277342399        0.7743522072
 C         -1.9421723957       -3.2582452283       -1.2418190625
 C         -2.3119283070       -4.7003814377       -1.0719178943
 C         -3.3318900929       -3.7176611179       -1.5614498702
 H         -3.6346467393       -3.7512140701       -2.5969423021
 H         -4.1211888704       -3.4221023534       -0.8855202577
 H         -1.9112904229       -5.4171968394       -1.7717827029
 H         -2.4180244416       -5.0778526421       -0.0665096100
 H         -1.3021539750       -2.9952625384       -2.0740487664
