  62
        -98.94094429
 C         -1.7257820585       -1.0787030860        0.0071109948
 C         -2.1416467831        0.1288887763       -0.6065231877
 C         -3.5940713805        0.2813058007       -0.7995767953
 C         -4.4255508601       -0.6960887583       -0.3983832383
 C         -5.9226706000       -0.6438846658       -0.4876338499
 C         -6.5341680481       -0.0614428747        0.7943232055
 C         -5.8834972993        1.2445599904        1.2504282447
 H         -6.4154827563        1.5783766390        2.1439139099
 H         -4.8511642808        1.0449357098        1.5468603118
 C         -5.8990622775        2.3626087592        0.1986912717
 H         -6.6433851837        2.1410072739       -0.5670542315
 H         -6.1994757685        3.2945144255        0.6822920673
 C         -4.5478477083        2.6237444303       -0.4697423770
 H         -3.7777252050        2.7535137506        0.2950911863
 H         -4.6185564863        3.5634244038       -1.0242206984
 C         -4.0705715562        1.5478020105       -1.4533778916
 H         -4.8588259332        1.3355210446       -2.1788160325
 H         -3.2073925147        1.9510322524       -1.9915607445
 H         -7.6003101604        0.1004823794        0.6256233750
 H         -6.4242959455       -0.7964987512        1.5949668385
 H         -6.2096761310       -0.0408590612       -1.3468515906
 H         -6.2946456269       -1.6602555565       -0.6277682020
 O         -3.9902885528       -1.8378348086        0.1926929902
 C         -2.6416257904       -2.0473939048        0.4279874963
 O         -2.3867912785       -3.1170766384        1.0157096878
 H          1.7280389570        0.2187185741       -0.7899223615
 C          1.4285781677        0.5188098896        0.1994234575
 C          0.4164848455       -0.1538816160        0.8642131736
 C          0.0129535902        0.3119048178        2.1132931696
 C          0.6019638634        1.4272654363        2.6755887464
 C          1.6232090436        2.0885702078        2.0155177888
 C          2.0315339738        1.6328820937        0.7682566551
 N          3.0608325057        2.2808397154        0.0739357048
 S          4.0942677366        1.4231322939       -0.9118743680
 O          5.2989202943        2.2258643597       -0.9502559184
 O          3.4852924767        1.1530951536       -2.1895960178
 C          4.4161554085       -0.1100896422       -0.0552459937
 C          4.8678621202       -0.0584790573        1.2486145313
 C          5.1166841279       -1.2446832670        1.9195410773
 C          4.9145672343       -2.4572536222        1.2782197781
 C          4.4697549770       -2.4928945953       -0.0340342167
 C          4.2165584864       -1.3088952962       -0.7084863307
 H          3.8635632794       -1.2906748343       -1.7274592345
 H          4.3153657562       -3.4367412715       -0.5327585436
 H          5.1057390713       -3.3801694505        1.8026453702
 H          5.4654570296       -1.2207693002        2.9393186265
 H          5.0233034186        0.8987572865        1.7186069262
 H          3.5252135065        3.0240758371        0.5729825797
 H          2.0874342030        2.9591158266        2.4532377589
 H          0.2706427582        1.7824724730        3.6398314366
 H         -0.7821646487       -0.2080195972        2.6308928954
 C         -0.2625903052       -1.3731931920        0.2926297216
 H         -0.2789213806       -2.1462905028        1.0786830184
 C          0.4957748644       -1.9700309468       -0.8832301468
 C         -0.1895971871       -2.8443482556       -1.8889506447
 C          0.3065517431       -1.4886242200       -2.2888403037
 H          1.1734987326       -1.4196133512       -2.9305908503
 H         -0.4134173468       -0.7030971925       -2.4565573414
 H          0.3343328228       -3.7146845577       -2.2541288908
 H         -1.2552466329       -2.9884072398       -1.7844527719
 H          1.5034304214       -2.2605131905       -0.6008118977
 O         -1.3594107092        1.0409384047       -0.9786255350
