  62
        -98.94269377
 C         -2.0016538189       -0.8035750748       -0.4484842623
 C         -0.9553652610       -1.3461627482       -1.2298001276
 C         -0.2691034153       -2.5183048346       -0.6747577798
 C         -0.6399911512       -2.9946319879        0.5269443064
 C         -0.0603380173       -4.1906109931        1.2338328027
 C          1.4075276727       -4.0484569477        1.6821278389
 C          2.4238124482       -4.6402430733        0.6971816260
 H          3.2055142629       -5.1504523637        1.2636085148
 H          1.9257561720       -5.4007588906        0.0941153494
 C          3.1209544583       -3.6342931190       -0.2235161095
 H          3.9090124602       -3.1251099229        0.3365732170
 H          3.5976251577       -4.1935286925       -1.0318829645
 C          2.2265847684       -2.5513005574       -0.8272083930
 H          1.9873251284       -1.8095062887       -0.0604461483
 H          2.8023546814       -2.0295085644       -1.5952704114
 C          0.9054279529       -3.0661814740       -1.4336853283
 H          0.8832393183       -4.1551191214       -1.4389149477
 H          0.8063619096       -2.7136960860       -2.4626704491
 H          1.6239209698       -2.9963837728        1.8731500510
 H          1.5044560982       -4.5757069746        2.6327968467
 H         -0.6898283407       -4.3443609417        2.1126604280
 H         -0.1629942923       -5.0672058634        0.5899577869
 O         -1.6475011419       -2.4407531611        1.2530569887
 C         -2.3198452113       -1.3127002043        0.8102676276
 O         -3.1732531197       -0.8809145322        1.6099609292
 O         -0.6033487578       -0.8661715228       -2.3428408085
 C         -2.6902183171        0.4687975257       -0.9180140321
 C         -2.3043809035        1.5700450469        0.0400969007
 C         -3.2056629667        2.3733016531        0.7232506890
 C         -2.7486788476        3.2827144639        1.6633256412
 C         -1.4019658421        3.3914442588        1.9558836270
 C         -0.4890360362        2.6031269698        1.2607821944
 C         -0.9467077623        1.7366513177        0.2853819342
 H         -0.2407041415        1.1272581464       -0.2538945805
 N          0.8837133854        2.6814128493        1.5253405186
 S          1.9372877294        1.4026418275        1.2742938841
 O          1.2781555158        0.1191873393        1.3244721035
 O          2.9835927879        1.6151495425        2.2536995032
 C          2.6081475547        1.7463192300       -0.3405859363
 C          2.1997600014        1.0508847803       -1.4598222600
 C          2.7467688926        1.3812228955       -2.6908019220
 C          3.6858462757        2.3955426897       -2.7843197510
 C          4.0879432813        3.0855105673       -1.6501120561
 C          3.5455734440        2.7597797408       -0.4186568844
 H          3.8389971954        3.2597570349        0.4893898887
 H          4.8199370498        3.8735947969       -1.7229229634
 H          4.1063228472        2.6471361037       -3.7451736017
 H          2.4248715279        0.8404809822       -3.5666373009
 H          1.4662921649        0.2642487903       -1.3766812531
 H          1.1355918560        3.2257620627        2.3361990814
 H         -1.0565124250        4.0725130495        2.7187306219
 H         -3.4573396642        3.8985779849        2.1963936077
 H         -4.2628341287        2.2748165708        0.5392750036
 H         -2.2555673524        0.6936943316       -1.9029480815
 C         -4.1821422247        0.2752337072       -1.0690165884
 C         -4.9594509497        1.1483258593       -2.0071387713
 C         -4.7168968575       -0.2900337649       -2.3495265378
 H         -5.5449655229       -0.9809899503       -2.3002168224
 H         -4.0036413395       -0.5190654301       -3.1277182339
 H         -5.9582406560        1.4461448486       -1.7262350709
 H         -4.4132097369        1.8988051658       -2.5580271062
 H         -4.6571056782       -0.0398717427       -0.1471232550
