  62
        -98.93970460
 C         -0.9073691673       -1.2216900143       -0.2734552688
 C         -1.9693408898       -1.2545166338        0.6654780220
 C         -2.9302414399       -0.1386505181        0.6380705919
 C         -2.7707444550        0.8400369614       -0.2715553415
 C         -3.5853620532        2.0849291201       -0.5567970216
 C         -4.9471063722        2.2944083306        0.1000619991
 C         -6.0459089870        1.3562989772       -0.3997085385
 H         -6.9354499845        1.5098059491        0.2150401824
 H         -6.2994111810        1.6359726897       -1.4255159038
 C         -5.6945977084       -0.1293075621       -0.4035336847
 H         -6.5500421147       -0.6742465686       -0.8122395864
 H         -4.8512904658       -0.3061417394       -1.0742262168
 C         -5.3737204769       -0.7274725425        0.9642771547
 H         -5.2869233956       -1.8102048598        0.8389147123
 H         -6.1996847376       -0.5365694212        1.6523753726
 C         -4.0705199039       -0.2303007427        1.6114626190
 H         -4.2201051817        0.7190788391        2.1192277288
 H         -3.7696786855       -0.9629936601        2.3658134570
 H         -4.8566864243        2.2377238531        1.1806137639
 H         -5.2554674499        3.3158823232       -0.1387674533
 H         -2.9407295596        2.9291121915       -0.2940178545
 H         -3.7055648058        2.1185552694       -1.6445211277
 O         -1.7164064448        0.8450965459       -1.1368217711
 C         -0.7630462945       -0.1603382239       -1.1647958894
 O          0.1218638818        0.0236981730       -2.0228365064
 H          2.0279973176       -0.5952117205       -0.7963232120
 C          2.1924459721       -1.1199983253        0.1318311170
 C          1.2834468886       -2.0789027678        0.5589679869
 C          1.5166229704       -2.7372463073        1.7613494854
 C          2.6379962313       -2.4480990032        2.5176186742
 C          3.5395828805       -1.4894748126        2.0940797414
 C          3.3114242129       -0.8195796202        0.8958130441
 N          4.2097412284        0.1608867837        0.4583661602
 S          3.7469172150        1.4084544618       -0.5427308324
 O          3.6548691903        0.9506295614       -1.9051382231
 O          4.7488341329        2.4294525622       -0.3026236532
 C          2.1736574248        2.0163843986        0.0410288019
 C          1.8694232968        1.9743930719        1.3870353572
 C          0.6728195945        2.5214468999        1.8204917918
 C         -0.1858545615        3.1164114907        0.9101304146
 C          0.1381421966        3.1597366548       -0.4363287582
 C          1.3265585419        2.6003180828       -0.8775053504
 H          1.6017617161        2.5896851285       -1.9197029485
 H         -0.5301067343        3.6154289966       -1.1496077635
 H         -1.1124449361        3.5476113738        1.2563969804
 H          0.4143947453        2.4828720171        2.8666186218
 H          2.5517107786        1.5153256301        2.0836349997
 H          4.9158983298        0.4398591130        1.1227740064
 H          4.4144131912       -1.2569713236        2.6817527107
 H          2.8088967623       -2.9686826210        3.4474056073
 H          0.8024530301       -3.4703234466        2.1060273745
 C          0.0535846345       -2.3986747142       -0.2557214524
 H         -0.4887411796       -3.1994235892        0.2659115230
 C          0.4295845418       -2.9007418772       -1.6352644316
 C          0.8970547307       -4.3162317673       -1.7870142835
 C         -0.4470063756       -3.9099469022       -2.3113285954
 H         -0.5870000486       -3.8363161729       -3.3793959691
 H         -1.3247902544       -4.2464375106       -1.7787526038
 H          1.6847747795       -4.5239521986       -2.4948826005
 H          0.9291871713       -4.9308031354       -0.9000255898
 H          0.8930788359       -2.1485643325       -2.2605122566
 O         -2.1161472981       -2.1910390825        1.4956405069
