  62
        -98.93685065
 C          1.7650731178        0.0628425927        0.3329047991
 C          2.9097897306        0.5282604196        1.0218604993
 C          4.2024373156        0.0269553296        0.5371482086
 C          4.2349869951       -0.8405438540       -0.4904949406
 C          5.4586434402       -1.4937730713       -1.0773223417
 C          6.4675861878       -0.5556585099       -1.7676735469
 C          7.6114533475       -0.0810123194       -0.8628282727
 H          7.7438081477       -0.8033371620       -0.0564170837
 H          8.5385937642       -0.0823482269       -1.4396345091
 C          7.4555245157        1.3231026602       -0.2711157447
 H          7.6949769776        2.0621615257       -1.0390969512
 H          8.1903202319        1.4317017063        0.5295526262
 C          6.0705033988        1.6660313358        0.2778809135
 H          5.3850541131        1.8614193935       -0.5502251261
 H          6.1482085253        2.5986497283        0.8401800549
 C          5.4455688130        0.5782565892        1.1729081239
 H          6.1622305218       -0.2176819114        1.3694301212
 H          5.1408016090        1.0117493765        2.1275227640
 H          6.9006066437       -1.1149159198       -2.5985925602
 H          5.9385910525        0.2963881735       -2.1938288145
 H          5.9669482709       -2.0561213422       -0.2906954225
 H          5.0809551762       -2.2112112177       -1.8087648620
 O          3.1065588959       -1.2769674106       -1.1159910718
 C          1.8494593403       -0.8310185505       -0.7341078649
 O          0.9120798342       -1.3016630586       -1.4063626103
 O          2.8531397566        1.3158002169        2.0041614568
 C          0.3977394208        0.5580458532        0.7664960884
 C         -0.5031748474       -0.6025177603        1.1054494030
 C         -0.0246280075       -1.6009506457        1.9505426160
 C         -0.8134505172       -2.6851612280        2.2799592163
 C         -2.0984842232       -2.7954469231        1.7784838034
 C         -2.5932757853       -1.7966043210        0.9488442369
 C         -1.8001949798       -0.7029472873        0.6265489087
 H         -2.1977207203        0.0525840216       -0.0296384507
 N         -3.9101511714       -1.8604880470        0.4802144728
 S         -4.4243214672       -1.1032197230       -0.9133325175
 O         -5.7213967068       -1.6946469873       -1.1705995464
 O         -3.4668040817       -1.1980396598       -1.9895588893
 C         -4.6566823594        0.5980592911       -0.4393624163
 C         -5.1151207807        0.8933030481        0.8292366902
 C         -5.3330795066        2.2187078141        1.1700697700
 C         -5.1007112329        3.2210123054        0.2407988068
 C         -4.6467901390        2.9079689563       -1.0310789770
 C         -4.4210517055        1.5844128860       -1.3764261301
 H         -4.0544849076        1.2969886686       -2.3494941427
 H         -4.4667075929        3.6879142991       -1.7540619628
 H         -5.2716173468        4.2517608511        0.5082092746
 H         -5.6841237875        2.4658250802        2.1589717535
 H         -5.2858946377        0.0914404982        1.5276377183
 H         -4.3971723449       -2.7263035855        0.6548838733
 H         -2.7130098594       -3.6474469634        2.0259881736
 H         -0.4245585443       -3.4561511805        2.9281427135
 H          0.9825760569       -1.5194011460        2.3361684320
 H          0.5774563681        1.1333998141        1.6873363924
 C         -0.1800792135        1.4884108171       -0.2793726655
 C         -1.0991142902        2.6000735561        0.1281043196
 C          0.2958957727        2.9085682587       -0.3234839675
 H          0.4376442549        3.3744603762       -1.2871093996
 H          1.0219928191        3.2086265342        0.4178633318
 H         -1.9200236211        2.8552873648       -0.5246181340
 H         -1.3253385849        2.6991132901        1.1787745193
 H         -0.3622200660        0.9897373312       -1.2259742292
