  62
        -98.93627828
 C          2.5305556892        0.3293091401        0.6313684778
 C          2.1711929454       -0.2414213900       -0.6126871538
 C          2.0113975707       -1.7083258099       -0.6460059221
 C          2.1539436206       -2.4185726840        0.4875320353
 C          2.0857346149       -3.9081745213        0.7554547679
 C          1.5363385739       -4.8669499708       -0.2965218016
 C          0.0355584505       -4.7351435477       -0.5554411828
 H         -0.5013739509       -5.1069605423        0.3208453974
 H         -0.2238243035       -5.3743393835       -1.4022090360
 C         -0.4669659165       -3.3202285834       -0.8327431935
 H         -0.3032775248       -2.6812748426        0.0385166729
 H         -1.5502650144       -3.3666358834       -0.9796039949
 C          0.1280450229       -2.6359913127       -2.0614636490
 H         -0.4195826831       -1.6993803738       -2.1988320542
 H         -0.0353722450       -3.2568183903       -2.9454851981
 C          1.6243959921       -2.2939734253       -1.9733883838
 H          1.8350259345       -1.5238919859       -2.7217717630
 H          2.2422425308       -3.1581416976       -2.2085204864
 H          1.7180868439       -5.8779255448        0.0782901004
 H          2.0948544851       -4.7686208640       -1.2226481328
 H          1.5043981166       -4.0163861117        1.6768010018
 H          3.1101951083       -4.2108388572        0.9998739178
 O          2.4625224149       -1.8180264956        1.6753166402
 C          2.6312509152       -0.4505923222        1.7830309914
 O          2.8669227789       -0.0546938765        2.9433956211
 O          2.0045436938        0.4293878095       -1.6651326730
 C          2.6752606569        1.8315042639        0.8125970187
 C          1.5148741790        2.5249176570        0.1402367477
 C          1.6428864605        3.5895213298       -0.7410079162
 C          0.5201370202        4.1439037126       -1.3319282370
 C         -0.7401482760        3.6366950820       -1.0773443731
 C         -0.8789205267        2.5740650807       -0.1913782789
 C          0.2406872111        2.0528066717        0.4320467623
 H          0.1271630297        1.2271026641        1.1195888165
 N         -2.1484979121        2.0243364099        0.0968351496
 S         -2.3027397591        0.3471841743       -0.0823372507
 O         -1.5477025162       -0.3222227559        0.9457372192
 O         -2.0212399887       -0.0276327591       -1.4502716245
 C         -4.0464891382        0.1688487595        0.2461275790
 C         -4.9205955467       -0.0984182719       -0.7895999182
 C         -6.2753025554       -0.2025550376       -0.5136203520
 C         -6.7297346115       -0.0345484284        0.7854124336
 C         -5.8394733760        0.2327389656        1.8152949725
 C         -4.4841582475        0.3357429370        1.5461599029
 H         -3.7539726281        0.5344095311        2.3134985496
 H         -6.1959156635        0.3608122885        2.8246328539
 H         -7.7841065864       -0.1142770461        0.9979110616
 H         -6.9689769491       -0.4132959141       -1.3115141321
 H         -4.5196951719       -0.2251197997       -1.7824175147
 H         -2.8719594722        2.4659689142       -0.4583682933
 H         -1.6102045952        4.0510602333       -1.5648935978
 H          0.6318740503        4.9686492406       -2.0196701977
 H          2.6204790025        3.9697046327       -0.9881757234
 H          2.5747173866        1.9923967863        1.8996448578
 C          4.0342708726        2.3889749517        0.4162426388
 C          5.2492668941        1.5118438774        0.3796454798
 C          4.6804873740        2.0572401882       -0.8939802078
 H          5.2285823081        2.8344668547       -1.4063508993
 H          4.1505368838        1.3869031454       -1.5515938062
 H          6.1822129980        1.9150538344        0.7441272395
 H          5.1136262272        0.4612383716        0.5931148436
 H          4.1853825622        3.3955948287        0.7938766265
