  62
        -98.94303299
 C         -1.8032402771       -1.3579017357       -0.0592501951
 C         -3.1275028498       -1.2044564222        0.4315288207
 C         -3.9152760045       -0.1113112714       -0.1473822364
 C         -3.3608063757        0.6907516762       -1.0736402808
 C         -4.0329803161        1.8464872782       -1.7637620029
 C         -4.0079816834        3.1545522041       -0.9609618676
 C         -4.9405810916        3.1933189462        0.2503251850
 H         -4.9893825500        4.2318096340        0.5838274327
 H         -5.9461702362        2.9035965440       -0.0564074511
 C         -4.4864915215        2.3184997011        1.4273091005
 H         -3.4318349692        2.0610638380        1.3051387680
 H         -4.5712240306        2.8859355800        2.3568004061
 C         -5.2914911182        1.0316497807        1.6084127266
 H         -4.8612165223        0.4721536048        2.4429580154
 H         -6.3242044140        1.2775839880        1.8657296243
 C         -5.3005356922        0.1142043559        0.3787774717
 H         -5.9386569937        0.5335259217       -0.3990806915
 H         -5.7056674535       -0.8556071460        0.6784481022
 H         -2.9831271331        3.3468498931       -0.6358784256
 H         -4.2980126462        3.9587021157       -1.6411490408
 H         -5.0646255055        1.5826319320       -1.9988709079
 H         -3.4940588466        2.0064529285       -2.7002186645
 O         -2.0884411266        0.5195333829       -1.5137166983
 C         -1.2747585312       -0.4979178302       -1.0241381960
 O         -0.1424468068       -0.5095679420       -1.5398438694
 O         -3.6286029689       -1.9504903483        1.3136651040
 C         -0.9594450951       -2.4560049368        0.5674745990
 C          0.3498100549       -1.8726097463        1.0300358646
 C          0.4077775961       -1.1707845727        2.2303821742
 C          1.5821867558       -0.5660669017        2.6389624851
 C          2.7149198182       -0.6247803822        1.8456878287
 C          2.6582636428       -1.3048720874        0.6362540466
 C          1.4904203311       -1.9471808346        0.2473792085
 H          1.4577238895       -2.4677515040       -0.6967519739
 N          3.7822206024       -1.3254688472       -0.2052499787
 S          4.7002682791        0.0637574721       -0.3380589059
 O          5.2821556468        0.0083948510       -1.6619301109
 O          5.6484527866        0.1125218606        0.7497859016
 C          3.5940277766        1.4621573623       -0.2085084906
 C          2.3844289974        1.4519130549       -0.8732362128
 C          1.5594463767        2.5613586385       -0.7732720946
 C          1.9549443794        3.6595241085       -0.0264882414
 C          3.1764532230        3.6564142321        0.6295359691
 C          4.0029748886        2.5484416842        0.5405342859
 H          4.9549546452        2.4988072214        1.0441571162
 H          3.4842256212        4.5102795828        1.2114405163
 H          1.3072615129        4.5192290841        0.0457178469
 H          0.6061606068        2.5449582051       -1.2783703319
 H          2.0626398935        0.5917750968       -1.4383709486
 H          3.5996998645       -1.7269616247       -1.1134347526
 H          3.6366925399       -0.1509567538        2.1431967209
 H          1.6157530516       -0.0339169475        3.5773379661
 H         -0.4838746465       -1.0979656193        2.8375137219
 H         -1.5329804137       -2.7641290089        1.4562379137
 C         -0.7846582070       -3.7029156288       -0.2863878773
 C         -1.9408272736       -4.2539721054       -1.0649627348
 C         -0.7573647872       -3.6830047507       -1.7840763468
 H         -0.0882305171       -4.3652430181       -2.2887051710
 H         -0.8662919695       -2.7334808409       -2.2836689959
 H         -2.0912939957       -5.3227967936       -1.0828974308
 H         -2.8576857913       -3.6826073780       -1.0596494904
 H         -0.1385644653       -4.4294618219        0.1977839492
