  62
        -98.94244620
 C          1.3885111108        1.2662822035       -0.0101673645
 C          2.4594860973        0.9066586607        0.8385800603
 C          3.1018692677       -0.3850551496        0.5587619546
 C          2.6263280388       -1.1500516469       -0.4412003215
 C          3.2165598087       -2.4558880370       -0.8927073371
 C          4.4823755111       -2.2010737476       -1.7362678288
 C          5.7764194585       -2.7130910845       -1.1034153960
 H          5.8189677490       -3.7988226606       -1.2118584674
 H          6.6077004220       -2.2913973458       -1.6723056843
 C          5.9693911427       -2.3831248506        0.3797481178
 H          5.3870330650       -3.0762611479        0.9888270767
 H          7.0196937162       -2.5699336396        0.6133677981
 C          5.6191086968       -0.9496869042        0.7992066673
 H          6.3577721342       -0.6203438686        1.5327780073
 H          5.6907745149       -0.2712604374       -0.0510836602
 C          4.2355901178       -0.7944154190        1.4583066874
 H          4.2940724701       -0.0019555188        2.2107771608
 H          3.9708091406       -1.7195760979        1.9788515297
 H          4.3692335639       -2.6740035380       -2.7128635878
 H          4.5631357923       -1.1267267512       -1.9140138843
 H          2.4566680886       -2.9659122596       -1.4854234842
 H          3.4478461945       -3.0711420444       -0.0258361157
 O          1.5837753811       -0.7777043484       -1.2260194452
 C          0.9295527104        0.4248150316       -1.0221265285
 O         -0.0223315882        0.6331606120       -1.7996001010
 O          2.8572897505        1.6334095069        1.7913041787
 C          0.6666274608        2.5801779962        0.2219825832
 C         -0.8063903475        2.3417638079        0.4466073566
 C         -1.7948599918        3.1888818736       -0.0402731908
 C         -3.1324270945        2.9141489656        0.1870801782
 C         -3.5139515380        1.7810257049        0.8818238352
 C         -2.5324643855        0.9329355254        1.3802207017
 C         -1.1945325266        1.2316190736        1.1857771580
 H         -0.4474732020        0.5594534442        1.5827556053
 N         -2.8614083925       -0.2558514717        2.0690466621
 S         -2.4592259352       -1.6829445314        1.2811933702
 O         -2.9850873730       -2.7378053289        2.1222967971
 O         -1.0434131378       -1.7204912773        1.0223590650
 C         -3.4016719543       -1.6091383677       -0.2319169500
 C         -4.6434048112       -2.2162093421       -0.2578512100
 C         -5.4285709763       -2.0934141324       -1.3920830212
 C         -4.9656329862       -1.3569901455       -2.4725487798
 C         -3.7196218400       -0.7516263347       -2.4282715122
 C         -2.9243244431       -0.8737494929       -1.2981320031
 H         -1.9488001362       -0.4140391099       -1.2489210595
 H         -3.3515196053       -0.1778179259       -3.2636211183
 H         -5.5777437932       -1.2547041473       -3.3547659099
 H         -6.3965218004       -2.5667677114       -1.4287628097
 H         -4.9585936764       -2.7796736693        0.6056749566
 H         -3.8328322426       -0.3031568582        2.3475830496
 H         -4.5573201696        1.5507647616        1.0367323645
 H         -3.8876526617        3.5815188051       -0.1986726156
 H         -1.5167392126        4.0643070671       -0.6040807183
 H          1.0960640987        2.9920518406        1.1480413641
 C          0.9491586273        3.5410092982       -0.9158548324
 C          1.0265310212        5.0170194628       -0.6663820097
 C          2.2740547851        4.2398749512       -0.9566979925
 H          2.7581075553        4.3732533670       -1.9125282134
 H          2.9591157610        4.0452282801       -0.1443272669
 H          0.6563714490        5.6884529956       -1.4264461370
 H          0.8715983524        5.3627372432        0.3444540447
 H          0.5347405064        3.1990474108       -1.8578161948
