  62
        -98.94510348
 C          2.2133776637       -0.8062118685        0.0880339485
 C          3.1120631052       -0.5769428542       -0.9869548310
 C          3.9138885749        0.6479979250       -0.9131200482
 C          3.7382134144        1.4967933502        0.1155075327
 C          4.4530077115        2.8051731574        0.3178660812
 C          5.8288413756        2.6692384566        0.9847295794
 C          6.9256703795        2.0780096269        0.0982051250
 H          6.9648248082        2.6269228802       -0.8431362205
 H          7.8750752633        2.2428469798        0.6114439933
 C          6.7711681249        0.5770583304       -0.1840932990
 H          6.0769022417        0.1406250879        0.5376513740
 H          7.7332976357        0.0794329814       -0.0437985830
 C          6.2904558442        0.2435215576       -1.5963968779
 H          6.1818867758       -0.8411463210       -1.6739569708
 H          7.0414419421        0.5599042025       -2.3235133777
 C          4.9472136517        0.8819768073       -1.9735289444
 H          5.0742261866        1.9497792479       -2.1505946555
 H          4.5900855886        0.4140036909       -2.8940225807
 H          6.1403108700        3.6697218243        1.2936631222
 H          5.7210260186        2.0618385368        1.8863861647
 H          4.5597326404        3.3156091906       -0.6398123266
 H          3.8139969824        3.4106615534        0.9645174732
 O          2.8453689973        1.2588539072        1.1112762096
 C          2.0750340344        0.1043600651        1.1355636756
 O          1.3322853417        0.0269564272        2.1350887483
 O          3.2377402154       -1.3635647800       -1.9622245763
 C          1.3705705322       -2.0711746646        0.0295658872
 C         -0.0373151995       -1.6971399534       -0.3656642267
 C         -0.4282320259       -1.7642422595       -1.6991725195
 C         -1.6942108035       -1.3617369051       -2.0842787135
 C         -2.5925658225       -0.8746836010       -1.1511256512
 C         -2.2053199208       -0.7878619393        0.1791110809
 C         -0.9433440796       -1.2142476370        0.5672193408
 H         -0.6461624372       -1.1209454211        1.6002862650
 N         -3.1027774949       -0.2689407777        1.1322082520
 S         -3.7622747705        1.2437368557        0.8084727016
 O         -2.9034341463        2.0283949573       -0.0491497960
 O         -4.0764772213        1.8106495855        2.1020677440
 C         -5.2847966588        0.8618213923       -0.0345151060
 C         -5.5231701271        1.3697507263       -1.2964424137
 C         -6.7177755724        1.0608282001       -1.9286563026
 C         -7.6479456219        0.2546170514       -1.2907036821
 C         -7.3947753740       -0.2448726437       -0.0217217695
 C         -6.2031511085        0.0608082958        0.6158648985
 H         -5.9687264109       -0.3018134470        1.6026745551
 H         -8.1207468527       -0.8708067140        0.4715897109
 H         -8.5759421521        0.0148147297       -1.7852848445
 H         -6.9164216515        1.4493289746       -2.9146182335
 H         -4.7682935364        1.9888413332       -1.7548417960
 H         -2.7268395980       -0.2833612283        2.0703700299
 H         -3.5771951027       -0.5491957525       -1.4447506689
 H         -1.9839756859       -1.4233499794       -3.1221911647
 H          0.2799565783       -2.1181764312       -2.4347736801
 H          1.8025424132       -2.6640125163       -0.7876684709
 C          1.4344908943       -2.8878872543        1.3036490600
 C          0.9789237837       -4.3152342159        1.2742204707
 C          2.4365016672       -3.9964202664        1.4122877603
 H          2.9153476770       -4.1648804715        2.3653070351
 H          3.0808540420       -4.1732212141        0.5635322737
 H          0.4539427343       -4.7063084129        2.1321073020
 H          0.6335214120       -4.7071477842        0.3296500196
 H          1.2389983136       -2.3129414366        2.1996213448
