  62
        -98.94613196
 C         -1.0743327266       -1.5452365106       -0.1977168469
 C         -1.1794062281       -0.1435709243       -0.3784028442
 C         -2.2666893122        0.5150168343        0.3588170312
 C         -3.0383538323       -0.1913711488        1.2022955682
 C         -4.1570088139        0.3502483539        2.0506562491
 C         -5.4976152521        0.4746770130        1.3132980034
 C         -5.5754776397        1.6084214241        0.2900414697
 H         -5.2630143464        2.5411833591        0.7605671291
 H         -6.6261658963        1.7182376142        0.0142459813
 C         -4.7524640789        1.3698425665       -0.9835768196
 H         -5.3561215173        1.6204979711       -1.8586839365
 H         -4.5006276517        0.3097387026       -1.0604169424
 C         -3.4657706262        2.1906906532       -1.0695428170
 H         -3.7130590625        3.2531206081       -1.1233321369
 H         -2.9452240350        1.9164490060       -1.9901694884
 C         -2.4990191149        1.9732965291        0.1019280993
 H         -2.8767506045        2.4610310854        1.0007812371
 H         -1.5352588986        2.4163401535       -0.1588323743
 H         -6.2694320768        0.6411279053        2.0683886641
 H         -5.7139041818       -0.4765088544        0.8214646002
 H         -3.8702350531        1.3205541350        2.4578474332
 H         -4.2830158994       -0.3491304363        2.8802263987
 O         -2.8681610051       -1.5262454968        1.3979589322
 C         -1.9065143557       -2.2293572914        0.6932880907
 O         -1.8902514480       -3.4531487617        0.9417464942
 O         -0.4243206080        0.5474591433       -1.1118520633
 C         -0.0380011405       -2.4112196152       -0.8991249189
 C          1.2703174610       -2.3811997641       -0.1463100045
 C          1.8704578600       -3.5508901238        0.3043015820
 C          3.0597933029       -3.5023183254        1.0099596118
 C          3.6602912878       -2.2891725071        1.2955033365
 C          3.0653005652       -1.1145034561        0.8497692242
 C          1.8912889878       -1.1687131804        0.1150737562
 H          1.4369383025       -0.2539247496       -0.2271879704
 N          3.6389841160        0.1385580027        1.1121044091
 S          2.6413191804        1.4442469582        1.4420935664
 O          3.4891160888        2.3646147681        2.1762684305
 O          1.4356841336        1.0357412679        2.1277442312
 C          2.2664812385        2.1793501550       -0.1345676174
 C          1.2364721326        3.0964198321       -0.1748851196
 C          0.9374964503        3.7200620448       -1.3748033199
 C          1.6734222713        3.4178209528       -2.5091189065
 C          2.7088849972        2.4991189016       -2.4503533037
 C          3.0143345011        1.8730756152       -1.2522930926
 H          3.8049957595        1.1445434786       -1.1797319557
 H          3.2761126259        2.2612083604       -3.3361664976
 H          1.4332334602        3.8972755046       -3.4451746184
 H          0.1271686408        4.4304201301       -1.4225568762
 H          0.6823781415        3.2908268110        0.7305745700
 H          4.4497232439        0.1269515738        1.7136342542
 H          4.5773164892       -2.2490140392        1.8635825635
 H          3.5165179939       -4.4173010057        1.3557498939
 H          1.3894447374       -4.4994581469        0.1155158045
 H         -0.4264515332       -3.4380459458       -0.8540182491
 C          0.1761186271       -2.0402771469       -2.3540660270
 C          0.7397143360       -3.0649078808       -3.2901031666
 C         -0.6969758673       -2.6534510786       -3.4052200055
 H         -0.9969229053       -2.0440075268       -4.2442274252
 H         -1.4553547664       -3.3515083664       -3.0805708893
 H          1.4300049955       -2.7394361793       -4.0527995362
 H          0.9545647770       -4.0446452133       -2.8909429097
 H          0.4738738109       -1.0095688665       -2.4922043769
