  62
        -98.94559415
 C         -2.4104921748       -0.8446989559        0.1781905849
 C         -1.9565660775        0.0355364110       -0.8338847944
 C         -2.3747570855        1.4380504067       -0.6935018248
 C         -3.1376784364        1.7982513056        0.3547995573
 C         -3.5760977973        3.2023444494        0.6531921648
 C         -2.5657694703        3.9160609416        1.5628352670
 C         -1.1164936687        3.7955889625        1.0904367916
 H         -0.4980510730        4.3590456873        1.7926357391
 H         -0.8051891209        2.7501377142        1.1561594463
 C         -0.8704708611        4.3068731573       -0.3357828361
 H         -1.6949366632        4.9506292123       -0.6441420456
 H          0.0343595048        4.9177809950       -0.3359667441
 C         -0.6685702489        3.2050867650       -1.3775105881
 H         -0.2936136418        3.6684675725       -2.2932801694
 H          0.0939584435        2.5040356746       -1.0287536301
 C         -1.9203821977        2.4027496568       -1.7523062904
 H         -1.6720676200        1.7919299577       -2.6249149622
 H         -2.7289604965        3.0833971182       -2.0260186109
 H         -2.8428571826        4.9698333308        1.6269215826
 H         -2.6372208202        3.4855076587        2.5646003739
 H         -4.5418514264        3.1617436198        1.1597306214
 H         -3.6895773744        3.7488624125       -0.2808652943
 O         -3.5547400140        0.9224609507        1.3056976216
 C         -3.1981757321       -0.4155362522        1.2451851989
 O         -3.6310849304       -1.1079631720        2.1896225887
 O         -1.2380774682       -0.3279473916       -1.8000883760
 C         -2.0381722053       -2.3140271853        0.1179069521
 C         -0.5391232018       -2.4879336753        0.0628315606
 C          0.0802263600       -3.4376528623       -0.7395186931
 C          1.4576584796       -3.5736035990       -0.7290371436
 C          2.2461207183       -2.7721361818        0.0753034369
 C          1.6388860759       -1.8125905548        0.8765436410
 C          0.2572364494       -1.6850770018        0.8699122158
 H         -0.2151433466       -0.9450339770        1.5050036015
 N          2.4146226818       -0.9987101410        1.7188976649
 S          3.8365995487       -0.2879170689        1.2052126620
 O          4.7995104050       -1.3166935094        0.9023492310
 O          4.1896843022        0.6274076734        2.2660658047
 C          3.4435322328        0.6290102351       -0.2724393903
 C          3.4454864957       -0.0106662027       -1.4958115961
 C          3.1159403420        0.7143766290       -2.6298982244
 C          2.8006007162        2.0596393232       -2.5240747533
 C          2.8093673046        2.6892846856       -1.2887421319
 C          3.1261505783        1.9673589449       -0.1497844633
 H          3.1489292544        2.4192752458        0.8289901939
 H          2.5683454986        3.7371389938       -1.2095314924
 H          2.5464891251        2.6209835825       -3.4092251555
 H          3.1057626857        0.2261342208       -3.5909571476
 H          3.7095529287       -1.0536141135       -1.5456771197
 H          1.8744629161       -0.3462917661        2.2671043462
 H          3.3184301352       -2.8784190394        0.1018150525
 H          1.9250981216       -4.3189112973       -1.3545994714
 H         -0.5155542218       -4.0736855278       -1.3730767590
 H         -2.3956193395       -2.7588335765        1.0588768445
 C         -2.7607714904       -2.9781284044       -1.0372426542
 C         -3.1848896428       -4.4122724851       -0.9456817181
 C         -4.2101680067       -3.3217264172       -0.8770131140
 H         -4.8714402901       -3.1781753228       -1.7183429580
 H         -4.6667622169       -3.1047650828        0.0781094887
 H         -3.1463246857       -5.0201844352       -1.8371251104
 H         -2.9541955650       -4.9463905541       -0.0362207659
 H         -2.4407372444       -2.5969509464       -2.0001886798
