  62
        -98.94043108
 C         -2.0122203630       -1.4496462782        0.4420173945
 C         -2.3500685331       -0.8536306144       -0.7978609243
 C         -3.1897601660        0.3538953426       -0.7224427974
 C         -3.5783128214        0.8220777360        0.4767357554
 C         -4.3674774074        2.0796956262        0.6955841783
 C         -3.4392512327        3.2872546879        0.8898047159
 C         -2.3461253671        3.3996155395       -0.1731317684
 H         -1.7630267389        4.2963080283        0.0481739505
 H         -1.6730300105        2.5437357647       -0.0836591881
 C         -2.8691434844        3.4743088866       -1.6143946544
 H         -3.9256891512        3.7444971606       -1.6131316785
 H         -2.3328141397        4.2656811926       -2.1424726992
 C         -2.6772954645        2.1899467852       -2.4230407157
 H         -1.6332942151        1.8709328733       -2.3610993560
 H         -2.8854237436        2.4144354245       -3.4727041858
 C         -3.5698180291        1.0083878706       -2.0215462312
 H         -4.6135283757        1.3281561325       -2.0006438112
 H         -3.4624804830        0.2369237014       -2.7899168385
 H         -2.9613761781        3.2010532876        1.8683658825
 H         -4.0460812051        4.1943196068        0.8874248805
 H         -4.9765722871        1.9521771599        1.5919065226
 H         -5.0235716184        2.2452398563       -0.1566888871
 O         -3.2419446815        0.2204144869        1.6451703038
 C         -2.4560802803       -0.9185023236        1.6578050036
 O         -2.2260954911       -1.3660077659        2.7980277918
 O         -1.9767667365       -1.2823947869       -1.9213182577
 C         -1.1505796288       -2.6985222011        0.5603282475
 C          0.3108383197       -2.3307188918        0.5377466759
 C          1.1632294193       -2.6951346143        1.5726951008
 C          2.4985710816       -2.3292588861        1.5472922301
 C          3.0085258201       -1.5911577943        0.4944124151
 C          2.1607936933       -1.2140494032       -0.5399867731
 C          0.8242445400       -1.5833578764       -0.5140151578
 H          0.1699203433       -1.2939332527       -1.3231823507
 N          2.6596882959       -0.4486853701       -1.6080216509
 S          3.6340087713        0.8582958684       -1.2365512538
 O          3.4380703060        1.8016644017       -2.3142689036
 O          4.9883723300        0.4054790843       -1.0372319998
 C          2.9957876443        1.5156023782        0.2958426057
 C          1.6760227457        1.9195000368        0.3408825588
 C          1.1678241160        2.4158736168        1.5299541580
 C          1.9830610255        2.5001177931        2.6483492168
 C          3.3070071499        2.0951709497        2.5860751894
 C          3.8200195304        1.5960111597        1.3996291976
 H          4.8421288204        1.2666096328        1.3070999195
 H          3.9383138484        2.1636345915        3.4572017302
 H          1.5800332620        2.8838656108        3.5722007553
 H          0.1372610748        2.7298530216        1.5822757213
 H          1.0646580333        1.8454584719       -0.5451845214
 H          1.9584139447       -0.2047080991       -2.2920645330
 H          4.0468504089       -1.3040505748        0.4547985474
 H          3.1499128740       -2.6209946347        2.3566747321
 H          0.7697764003       -3.2575164952        2.4066175157
 H         -1.3748425455       -3.1047604647        1.5585437015
 C         -1.5203587005       -3.7703746898       -0.4576918020
 C         -0.6039481503       -4.2467890085       -1.5410422947
 C         -0.8912042376       -5.1293017363       -0.3661617283
 H         -1.5128255394       -6.0004618094       -0.5070462349
 H         -0.1036244387       -5.2606283738        0.3607547648
 H         -1.0454999055       -4.4894567817       -2.4958072727
 H          0.3778146518       -3.8066713862       -1.6182528037
 H         -2.5763625469       -3.7431321671       -0.7064700642
