  62
        -98.94302174
 C         -2.3368196807       -0.8935128759        0.4462778422
 C         -2.5268241000        0.1492420125       -0.4927373330
 C         -3.5206063964        1.1677008651       -0.1258970469
 C         -4.1550376658        1.0991599553        1.0576624570
 C         -5.1675350799        2.0801916261        1.5828212505
 C         -6.5971349995        1.8301099504        1.0832754419
 C         -6.8452656870        2.1843550336       -0.3834807400
 H         -7.9258531750        2.1676208911       -0.5386907601
 H         -6.5052844869        3.2030000754       -0.5728671138
 C         -6.1883647978        1.2254038685       -1.3861633581
 H         -5.9145359981        0.2979273317       -0.8779542523
 H         -6.9084311773        0.9625738915       -2.1644194525
 C         -4.9516526210        1.7893308472       -2.0857866419
 H         -4.5468205867        1.0152470465       -2.7428379423
 H         -5.2380626274        2.6412366136       -2.7066413278
 C         -3.8345639558        2.2335597391       -1.1325577134
 H         -4.1141199010        3.1599835001       -0.6315080162
 H         -2.9318727125        2.4127170123       -1.7218672834
 H         -6.8474542588        0.7801671835        1.2517860723
 H         -7.2673294527        2.4343479895        1.6990077228
 H         -4.8631059856        3.0950759439        1.3255093430
 H         -5.1607929587        1.9799093105        2.6702877505
 O         -3.9211606600        0.1012628284        1.9496828406
 C         -3.0361637499       -0.9209939110        1.6586368823
 O         -2.9555609595       -1.7906511608        2.5489020278
 O         -1.9109721766        0.2546168156       -1.5882984222
 C         -1.3865784105       -2.0609803001        0.2249892928
 C          0.0459859016       -1.6781811137        0.5132520129
 C          0.7558042513       -2.2993758425        1.5341526416
 C          2.0734469495       -1.9582370559        1.7839178426
 C          2.7079173483       -0.9902958985        1.0260292452
 C          2.0071402564       -0.3627534814        0.0044237774
 C          0.6881992572       -0.7128277202       -0.2487590277
 H          0.1447410625       -0.2178880980       -1.0401586674
 N          2.6285423963        0.6426381440       -0.7550067550
 S          4.1567686353        0.3551572447       -1.3818280346
 O          4.2763107771        1.2440829170       -2.5167845802
 O          4.3699150018       -1.0499164414       -1.6419259724
 C          5.2557346817        0.9099648344       -0.0948761933
 C          6.2468494915        0.0704976962        0.3746128210
 C          7.0976347494        0.5282639728        1.3688423875
 C          6.9437004320        1.8108120786        1.8722463135
 C          5.9449762426        2.6426199479        1.3878969449
 C          5.0920205566        2.1914961046        0.3934176534
 H          4.3054864110        2.8065984322       -0.0111529332
 H          5.8280749956        3.6393508029        1.7819540290
 H          7.6056737413        2.1646414938        2.6467938894
 H          7.8749206784       -0.1164630861        1.7464230532
 H          6.3248651570       -0.9209310605       -0.0424553006
 H          2.0213780504        1.0528403483       -1.4500563063
 H          3.7336410451       -0.7202039093        1.2172004102
 H          2.6124076085       -2.4491926378        2.5798223691
 H          0.2633664182       -3.0465282430        2.1395600567
 H         -1.6812053661       -2.8218664003        0.9599999348
 C         -1.5108712327       -2.6654577880       -1.1611018612
 C         -1.0638683895       -4.0779052587       -1.3804917106
 C         -2.5242431814       -3.7409932527       -1.4042735793
 H         -3.0441717418       -3.7547988455       -2.3504775907
 H         -3.1328602988       -4.0521174636       -0.5673970665
 H         -0.5760619483       -4.3246633527       -2.3111400883
 H         -0.6829393094       -4.6201714146       -0.5282954846
 H         -1.3414263360       -1.9544796353       -1.9589946311
