  62
        -98.93994618
 C         -2.7721876494       -0.0826397747        0.4122313016
 C         -2.8047253866       -1.0415868175       -0.6344939568
 C         -2.2540463916       -2.3639350746       -0.3314084919
 C         -1.7764866732       -2.6140734671        0.9006879582
 C         -1.1224350545       -3.8900705393        1.3550975182
 C          0.3678631607       -3.9624336219        0.9917638161
 C          0.6630745355       -4.2453858036       -0.4823997543
 H          1.7157412339       -4.5277921753       -0.5477473396
 H          0.0737710896       -5.1009880768       -0.8152505665
 C          0.4165059993       -3.0493227837       -1.4129085908
 H          0.3867605490       -2.1317627854       -0.8199743312
 H          1.2539809466       -2.9518273864       -2.1085305601
 C         -0.8541560222       -3.1484183503       -2.2578399525
 H         -0.7570068301       -3.9725876615       -2.9689190866
 H         -0.9583090139       -2.2204369218       -2.8262590474
 C         -2.1428782692       -3.3533824455       -1.4519104847
 H         -2.1886346649       -4.3710203184       -1.0645818874
 H         -2.9924764492       -3.1925847369       -2.1205462164
 H          0.8132342786       -4.7592601407        1.5925497051
 H          0.8398491293       -3.0186906518        1.2781048153
 H         -1.2162779669       -3.9196731603        2.4428202985
 H         -1.6481233406       -4.7484852157        0.9352944339
 O         -1.8470539519       -1.7036027993        1.9043777684
 C         -2.2861873251       -0.4009544983        1.6809545470
 O         -2.2146014959        0.3203107196        2.6941986459
 O         -3.2654820937       -0.7883312381       -1.7808533587
 C         -3.1258095192        1.3354415673       -0.0050893535
 C         -1.9808979319        1.8731457413       -0.8330758514
 C         -2.1933173443        2.6480246485       -1.9659227647
 C         -1.1200319175        3.0953060801       -2.7178738455
 C          0.1758717780        2.7583879066       -2.3729879377
 C          0.3979326252        1.9640937346       -1.2513660257
 C         -0.6769755795        1.5580474541       -0.4780714219
 H         -0.4954556763        0.9659616630        0.4059748827
 N          1.6920711621        1.5257362106       -0.9326108789
 S          2.0520477607        0.8326069431        0.5575467694
 O          1.3629045205       -0.4258682895        0.6758224384
 O          1.8484742545        1.7954226350        1.6186981275
 C          3.7935608497        0.5359836017        0.3259252112
 C          4.7137348400        1.4573818327        0.7883575046
 C          6.0630006935        1.2228059659        0.5738216713
 C          6.4663544841        0.0780613987       -0.0969819739
 C          5.5310274929       -0.8391509360       -0.5530401480
 C          4.1808140093       -0.6106792186       -0.3411425547
 H          3.4167407755       -1.2974170989       -0.6674567742
 H          5.8480156355       -1.7300559965       -1.0706617515
 H          7.5167048436       -0.1022860399       -0.2626216815
 H          6.7926357662        1.9315254755        0.9309850082
 H          4.3539128536        2.3270049242        1.3144898538
 H          2.4289884262        2.1274849185       -1.2707073024
 H          1.0092243157        3.0881897822       -2.9736444896
 H         -1.2959114647        3.7026515511       -3.5927533417
 H         -3.2036327813        2.8818543974       -2.2676331822
 H         -3.9974661445        1.2463479043       -0.6746634904
 C         -3.5137546137        2.2632176302        1.1325433691
 C         -2.5536233394        3.2322512038        1.7475690977
 C         -3.6779810073        3.7356177643        0.8956033966
 H         -4.4999705021        4.2429713559        1.3771361528
 H         -3.4285477556        4.1197692512       -0.0814648359
 H         -2.5983422629        3.3697407811        2.8170103338
 H         -1.5481123314        3.2676543856        1.3548448461
 H         -4.2196928749        1.7964353452        1.8109194171
