  62
        -98.93908612
 C         -2.2036618362       -1.1144196981        0.5202814412
 C         -2.3221707907       -0.2562000029       -0.5973104044
 C         -3.1201476901        0.9692821622       -0.4030824080
 C         -3.6700737030        1.2188871952        0.7998737781
 C         -4.4918617432        2.3896317184        1.2985457557
 C         -5.1056301496        3.3878205975        0.3202598392
 C         -6.2125364224        2.8178688967       -0.5660374574
 H         -7.0808465312        2.5991555793        0.0604917184
 H         -6.5049407596        3.5880521150       -1.2830122590
 C         -5.8589108861        1.5412560544       -1.3248215092
 H         -6.7334319978        1.2490303850       -1.9122860129
 H         -5.6638109846        0.7345708180       -0.6153691309
 C         -4.6743129225        1.6563433825       -2.2823121440
 H         -4.8372929643        2.4865370067       -2.9721892057
 H         -4.6352809201        0.7354879814       -2.8701499873
 C         -3.2989264699        1.8360026245       -1.6159903901
 H         -2.5311940362        1.5231782789       -2.3302548408
 H         -3.1079450843        2.8790278863       -1.3735575445
 H         -4.3297661932        3.8466876920       -0.2856972713
 H         -5.5458361729        4.1846534342        0.9260574379
 H         -3.8392990074        2.9378926037        1.9873945089
 H         -5.2877871790        1.9537161466        1.9108030638
 O         -3.4951307283        0.3749972752        1.8603457494
 C         -2.7684496626       -0.7977645530        1.7529521195
 O         -2.6933375073       -1.4556055220        2.8112210836
 O         -1.7843343768       -0.4944965485       -1.7096890180
 C         -1.4053701431       -2.4011583440        0.4103222150
 C          0.0208484042       -2.0854063122        0.0279236564
 C          0.7070620540       -2.7358811847       -0.9884601950
 C          2.0091898765       -2.3782148145       -1.2943090546
 C          2.6559032262       -1.3773619406       -0.5933611494
 C          1.9809597187       -0.7249046232        0.4303661664
 C          0.6785480768       -1.0863643741        0.7354417433
 H          0.1517152941       -0.5734462268        1.5320510138
 N          2.6341468116        0.2858400451        1.1605653311
 S          3.3294883497        1.5468189912        0.2926944605
 O          3.3588528746        2.6643274727        1.2121439658
 O          2.6538092742        1.7665991800       -0.9648545575
 C          4.9961049041        0.9894486262        0.0063106227
 C          5.7619834998        0.6399506541        1.1013323648
 C          7.0628031732        0.2084621393        0.8972484012
 C          7.5736900006        0.1373544494       -0.3903888768
 C          6.7929945153        0.4951742848       -1.4788468945
 C          5.4902116657        0.9265112890       -1.2817786714
 H          4.8433002987        1.2090623208       -2.0971017212
 H          7.1916827712        0.4392352208       -2.4790207885
 H          8.5863166916       -0.1994544810       -0.5465224822
 H          7.6727986590       -0.0707563263        1.7411379682
 H          5.3275888792        0.7136244865        2.0843084149
 H          2.0774061791        0.6539050096        1.9188541075
 H          3.6672689123       -1.0922815820       -0.8329579509
 H          2.5275940289       -2.8865765194       -2.0928721993
 H          0.2191085826       -3.5150400334       -1.5503096189
 H         -1.3976976127       -2.8399304131        1.4190751649
 C         -2.0904912406       -3.3646049814       -0.5358237261
 C         -1.9254056265       -4.8430939843       -0.3572521767
 C         -3.2317565797       -4.1891953164       -0.0239327544
 H         -4.0772139060       -4.3595014844       -0.6734410607
 H         -3.4983192887       -4.0734655281        1.0168733743
 H         -1.8769178432       -5.4667666681       -1.2370253436
 H         -1.3065232566       -5.1818024866        0.4597090463
 H         -2.1686335148       -2.9726321460       -1.5433126861
