  62
        -98.93798787
 C         -2.6248980946       -1.0089887238        0.5130013422
 C         -2.8775717598        0.1867704466        1.2362150324
 C         -4.1570231117        0.8515299557        0.9729351180
 C         -5.0199505837        0.3068384304        0.0964370344
 C         -6.3841435094        0.8369306097       -0.2527317615
 C         -6.3747309285        1.9319886948       -1.3278077743
 C         -5.8391045615        3.2884045370       -0.8680413049
 H         -6.0904609821        4.0123729226       -1.6456906254
 H         -6.3585783257        3.5936359562        0.0408495624
 C         -4.3223815724        3.3228489161       -0.6333282546
 H         -3.8579122528        2.4620524348       -1.1203933231
 H         -3.9020016872        4.2171164715       -1.0990216276
 C         -3.9079610785        3.3413753453        0.8381512703
 H         -2.8160813579        3.3274596981        0.8854489794
 H         -4.2540695646        4.2665479557        1.3043727042
 C         -4.4328500261        2.1556675623        1.6583911397
 H         -3.9101068958        2.1439764353        2.6178687670
 H         -5.5009444025        2.2694825073        1.8428602328
 H         -5.7903544119        1.5793301791       -2.1808554744
 H         -7.4053192381        2.0670257761       -1.6641905092
 H         -6.9588687346       -0.0114449486       -0.6305707045
 H         -6.8712114221        1.2135224464        0.6472593450
 O         -4.7455986281       -0.8404965371       -0.5749060991
 C         -3.5424708081       -1.5141040350       -0.4088707913
 O         -3.4438830925       -2.5271460127       -1.1285399445
 O         -2.0712984177        0.6674756400        2.0773964221
 C         -1.3036613758       -1.7033361669        0.7960842545
 C         -0.2614291190       -1.3512211875       -0.2395592798
 C         -0.3919254156       -1.7464243054       -1.5666579955
 C          0.5829498045       -1.4199512527       -2.4918284539
 C          1.7033065727       -0.6989927399       -2.1175285277
 C          1.8445795129       -0.3011390130       -0.7951159678
 C          0.8650333397       -0.6324959028        0.1336420515
 H          0.9706459963       -0.3104299206        1.1609955985
 N          2.9705300744        0.4466433692       -0.4088171000
 S          4.4660221786       -0.0135153727       -1.0475425485
 O          4.6075321277        0.5851380299       -2.3513275601
 O          4.6058878945       -1.4511894563       -0.9944568787
 C          5.5858654452        0.7635618489        0.0999158635
 C          5.8818060270        2.1039174194       -0.0610462023
 C          6.7373824644        2.7131670364        0.8429210410
 C          7.2789203567        1.9769836767        1.8863998339
 C          6.9730633159        0.6324537006        2.0342653528
 C          6.1170885815        0.0169771976        1.1345317889
 H          5.8592201467       -1.0276727723        1.2049254404
 H          7.3980228696        0.0621514747        2.8445370835
 H          7.9461568441        2.4533273272        2.5872699688
 H          6.9799876092        3.7575303038        0.7305115737
 H          5.4454604994        2.6334134185       -0.8918467601
 H          3.0191885983        0.5785081011        0.5921429260
 H          2.4715956015       -0.4454931806       -2.8304621919
 H          0.4704321457       -1.7315578343       -3.5197443595
 H         -1.2684267776       -2.2995603454       -1.8672970272
 H         -0.9686833131       -1.2881237327        1.7564855117
 C         -1.4272109704       -3.2069139651        0.9457505296
 C         -0.3606034324       -3.9493411069        1.6912572777
 C         -1.7230708056       -3.7875240859        2.2944449281
 H         -2.3699167241       -4.6498900948        2.3520699688
 H         -1.8371169083       -3.1007268563        3.1205462948
 H         -0.0668513758       -4.9242601213        1.3339004882
 H          0.4510579060       -3.3726746827        2.1086804572
 H         -1.8730367752       -3.6918474201        0.0876717443
