  62
        -98.94218595
 C         -2.5142710129       -0.6271998780       -0.5148484321
 C         -1.5188945151        0.2409005005       -1.0259362577
 C         -1.7825539045        1.6792420350       -0.8839425834
 C         -2.9360597887        2.0894009700       -0.3275657618
 C         -3.2981579008        3.5200940042       -0.0579994869
 C         -2.8555706464        3.9459491556        1.3492386483
 C         -1.4082521523        3.5827175596        1.6853915331
 H         -1.2043096421        3.9610745493        2.6897346905
 H         -1.3064533264        2.4952843538        1.7321744674
 C         -0.3645128737        4.1432039054        0.7091890710
 H         -0.7978530029        4.9631596270        0.1344210630
 H          0.4669632256        4.5522290420        1.2869061826
 C          0.2289407786        3.1072746220       -0.2478086576
 H          0.5804172114        2.2437126498        0.3253193470
 H          1.1031229842        3.5534850823       -0.7305741677
 C         -0.7136799875        2.6229781772       -1.3576484577
 H         -1.1545092827        3.4833392942       -1.8649903724
 H         -0.1169456525        2.0642574973       -2.0838071939
 H         -2.9902320188        5.0252322712        1.4414317463
 H         -3.5061490263        3.4588083510        2.0793395092
 H         -2.8291309058        4.1565867381       -0.8055819212
 H         -4.3820103509        3.6220011019       -0.1338209186
 O         -3.8931007782        1.2284943512        0.1039873242
 C         -3.6901580232       -0.1396412487        0.0627525435
 O         -4.6206652052       -0.8108414680        0.5512495377
 H          0.4073136056       -2.2757172141       -0.8433862763
 C          0.1356348932       -2.2916933698        0.1998697804
 C         -1.2011004861       -2.3190950482        0.5671778905
 C         -1.5198960134       -2.3368171250        1.9222894412
 C         -0.5273944532       -2.2960478699        2.8844719805
 C          0.8020954940       -2.1970478253        2.5127802871
 C          1.1264610001       -2.1850755648        1.1642780491
 N          2.4743977384       -1.9829080688        0.7961462813
 S          3.0452041966       -0.4355038717        1.2035438293
 O          4.1254447684       -0.6017775126        2.1500522493
 O          1.9473231175        0.3851919425        1.6569414700
 C          3.6979515693        0.1934031095       -0.3336770730
 C          5.0601958195        0.3789993721       -0.4697637328
 C          5.5534554986        0.8702426253       -1.6680599223
 C          4.6801419715        1.1656418436       -2.7038350370
 C          3.3157048667        0.9702470662       -2.5513125509
 C          2.8129149704        0.4778346784       -1.3567379896
 H          1.7536372589        0.3160380771       -1.2174118536
 H          2.6341423682        1.1953507174       -3.3562751424
 H          5.0631600755        1.5497786561       -3.6361373803
 H          6.6139346125        1.0212527922       -1.7895554621
 H          5.6973865038        0.1370351393        0.3651051219
 H          2.6190820966       -2.1412854130       -0.1925750621
 H          1.5896109293       -2.0950998402        3.2436247542
 H         -0.7923497985       -2.3081759809        3.9313605211
 H         -2.5616806141       -2.3447794732        2.2132418079
 C         -2.2986498080       -2.1340042376       -0.4520825867
 H         -3.2268593738       -2.5615462948       -0.0525644463
 C         -2.0144169378       -2.7491199092       -1.8047813909
 C         -2.0702581868       -4.2393584832       -1.9527565082
 C         -3.1354537907       -3.3843964187       -2.5687742298
 H         -3.1526528065       -3.2745002228       -3.6426539077
 H         -4.1155913261       -3.3804019016       -2.1146106532
 H         -2.3267005272       -4.8163560092       -1.0770578481
 H         -1.3569641745       -4.7212016950       -2.6036704982
 H         -1.2731559552       -2.2093642926       -2.3793512950
 O         -0.4562829032       -0.1475844513       -1.5785831386
