  62
        -98.93732393
 C         -1.7706188115       -1.4938400441        0.3607927235
 C         -1.8064832076       -0.2519758866        1.0437764831
 C         -2.8800606992        0.6896984074        0.6783232060
 C         -3.7588837400        0.3241952973       -0.2730326428
 C         -4.9116213675        1.1265811684       -0.8123931324
 C         -4.4621895086        2.2015202691       -1.8204822802
 C         -3.1443435377        2.8940613110       -1.4785479920
 H         -2.3781745484        2.1317135729       -1.3230274669
 H         -2.8420991760        3.4857500173       -2.3470031672
 C         -3.1911958572        3.8290347145       -0.2720553994
 H         -2.1893541192        4.2444820503       -0.1386674584
 H         -3.8654931689        4.6591565706       -0.4963965330
 C         -3.6404190344        3.2009694378        1.0470520128
 H         -3.4935760991        3.9505207732        1.8305648231
 H         -4.7061540262        2.9897751959        1.0197508928
 C         -2.8621039416        1.9630374580        1.4877239584
 H         -3.1992081107        1.6889449952        2.4951992142
 H         -1.8031546127        2.2202261222        1.5949662770
 H         -4.3354302687        1.7169521636       -2.7914518141
 H         -5.2548912696        2.9448754746       -1.9164073604
 H         -5.5752243515        0.4259433935       -1.3234332966
 H         -5.4661327283        1.5665203159        0.0116665135
 O         -3.6648700646       -0.8624716529       -0.9321107847
 C         -2.6732328522       -1.7897369651       -0.6602138020
 O         -2.7234458330       -2.7994719535       -1.3891957114
 O         -0.9703729983        0.0585312761        1.9345277936
 C         -0.6634646680       -2.4521004700        0.7674023959
 C          0.5460740137       -2.2150917381       -0.1035072395
 C          0.5273690398       -2.5016875141       -1.4644354115
 C          1.6324641699       -2.2322954416       -2.2516844198
 C          2.7755017492       -1.6766611634       -1.7019602835
 C          2.8002136878       -1.3811203868       -0.3457944958
 C          1.6902337998       -1.6527588669        0.4435801225
 H          1.7071759929       -1.4034085666        1.4959123659
 N          3.9611159232       -0.8104544768        0.2199315536
 S          4.3825324290        0.7308910378       -0.2797074464
 O          4.5619869583        0.7246949478       -1.7084278545
 O          5.5341918142        1.0938547166        0.5131138430
 C          2.9976304429        1.7648797504        0.1620206500
 C          3.0724358631        2.5263221176        1.3111750278
 C          1.9840814933        3.3026577366        1.6733094355
 C          0.8423482619        3.2962951867        0.8876989446
 C          0.7786643275        2.5180648459       -0.2572545727
 C          1.8650930796        1.7422477909       -0.6273294213
 H          1.8497052928        1.1292827085       -1.5145197762
 H         -0.1145728001        2.5087293563       -0.8617273250
 H         -0.0045263113        3.9019184093        1.1709296557
 H          2.0265804870        3.9068146388        2.5653142605
 H          3.9825273425        2.5043263596        1.8890279774
 H          3.9604672314       -0.8352562856        1.2305582689
 H          3.6372404439       -1.4469766811       -2.3071070255
 H          1.6051047091       -2.4577133100       -3.3072600271
 H         -0.3681640353       -2.9176848700       -1.9008130191
 H         -0.3948212943       -2.1620908211        1.7922974071
 C         -1.0703030629       -3.9105929993        0.7768117572
 C         -0.2675667499       -4.8778848064        1.5924083651
 C         -1.6517429856       -4.4999376341        2.0252551703
 H         -2.4422541185       -5.2288596730        1.9293294321
 H         -1.7587693170       -3.8520165641        2.8831610848
 H         -0.1036649984       -5.8694897974        1.1997298936
 H          0.5646511579       -4.4867251752        2.1581650058
 H         -1.4708095681       -4.2583671990       -0.1655623968
