  62
        -98.94093155
 C         -2.3195355531        0.8067745440        0.1422245447
 C         -3.5980917334        1.1903218261       -0.3290117591
 C         -4.7357650893        0.4695950199        0.2520637029
 C         -4.5203202142       -0.4711751609        1.1897399748
 C         -5.5793198511       -1.2739975031        1.8958650943
 C         -6.0493315146       -2.5102650762        1.1169052710
 C         -6.9255180741       -2.2170090864       -0.1016183864
 H         -7.3587082521       -3.1670919453       -0.4204473406
 H         -7.7491213028       -1.5660767524        0.1931209229
 C         -6.1735798620       -1.5950753601       -1.2865971754
 H         -6.4604136044       -2.1055434201       -2.2087517233
 H         -5.0996364150       -1.7486560039       -1.1567844838
 C         -6.4390058632       -0.1037912059       -1.4930839113
 H         -7.4885285476        0.0489460951       -1.7537931727
 H         -5.8298671682        0.2398556409       -2.3330066897
 C         -6.1054804791        0.7710700189       -0.2774604344
 H         -6.1158452285        1.8168455263       -0.5939886959
 H         -6.8540211873        0.6335549303        0.5023349130
 H         -6.6222425476       -3.1321334213        1.8085943118
 H         -5.1711045515       -3.0810536347        0.8063528497
 H         -6.4348711452       -0.6359311691        2.1187795561
 H         -5.1385918269       -1.6074356391        2.8378126191
 O         -3.2752039297       -0.7967378145        1.6310282474
 C         -2.1451412030       -0.1845253652        1.1072885045
 O         -1.0702687324       -0.6024860734        1.5804059085
 O         -3.7781440830        2.0887227557       -1.1940913937
 C         -1.0927867299        1.5017157792       -0.4182739660
 C         -0.1471183745        0.4939058634       -1.0230122703
 C         -0.6485638030       -0.4441501895       -1.9223272906
 C          0.1805967512       -1.3910706934       -2.4899728712
 C          1.5274626311       -1.4231306586       -2.1736781160
 C          2.0429455782       -0.4806156495       -1.2922707029
 C          1.2071734695        0.4749467161       -0.7296823868
 H          1.6295012684        1.1894798332       -0.0446161563
 N          3.4207601846       -0.4627029698       -1.0073902489
 S          3.9792975189       -0.0660699534        0.5349882155
 O          3.4316977746       -0.9688100473        1.5233171458
 O          3.7771779931        1.3416322859        0.7648638319
 C          5.7196017225       -0.3859205301        0.3068135348
 C          6.4696782824        0.5383454692       -0.3958203612
 C          7.8169505251        0.2896344390       -0.6028402229
 C          8.3894754806       -0.8721493300       -0.1061247408
 C          7.6251004858       -1.7887803363        0.5996856870
 C          6.2760739177       -1.5469130605        0.8083591612
 H          5.6441732925       -2.2269249986        1.3570147090
 H          8.0733035358       -2.6892336368        0.9878291521
 H          9.4386980304       -1.0628509337       -0.2675410915
 H          8.4151879739        1.0011718351       -1.1487278886
 H          5.9837376827        1.4305695346       -0.7543384348
 H          3.8854384372       -1.3005936714       -1.3324667110
 H          2.1740212984       -2.1700609698       -2.6089812522
 H         -0.2247383352       -2.1169479048       -3.1790421643
 H         -1.7033548682       -0.4247703093       -2.1619394628
 H         -1.4672378188        2.1499325435       -1.2253400706
 C         -0.4509196614        2.3714006669        0.6418954881
 C          0.3159253597        3.5976952446        0.2498428432
 C         -1.0199740569        3.7301097784        0.9153527868
 H         -1.0581675632        4.0763581387        1.9372997392
 H         -1.8619638412        4.0427451719        0.3151284268
 H          1.2036581460        3.8477181218        0.8114921979
 H          0.3820957082        3.8276055988       -0.8028762900
 H         -0.0945114874        1.7979624095        1.4919228393
