  62
        -98.93717443
 C         -1.2033505274       -1.0173883696        0.2020729687
 C         -1.6999422906        0.1150432111        0.8931827178
 C         -2.7074663972        0.9298382152        0.1959710186
 C         -3.0443679214        0.6168222337       -1.0662214031
 C         -4.0041052579        1.3291419402       -1.9863149226
 C         -5.3302247219        1.8175383390       -1.3874285607
 C         -5.9033239629        0.9325580999       -0.2706198101
 H         -6.9450977743        0.7020224282       -0.5006973632
 H         -5.3617982730       -0.0140594824       -0.2294664908
 C         -5.8634731379        1.6048142127        1.1038756179
 H         -6.1761904919        2.6453117939        0.9928626519
 H         -6.5888650804        1.1129502941        1.7562710326
 C         -4.5123606736        1.5623741153        1.8167648034
 H         -4.2961100635        0.5405584198        2.1404025964
 H         -4.5886558309        2.1745411186        2.7184941171
 C         -3.3117899448        2.0517810219        0.9903185619
 H         -2.5346415537        2.3801372763        1.6861780003
 H         -3.5830270300        2.8927388828        0.3563648450
 H         -6.0446769814        1.8745415715       -2.2104515311
 H         -5.2069471320        2.8315913721       -1.0095871071
 H         -3.4755500859        2.1774475031       -2.4321000581
 H         -4.2051372356        0.6185707055       -2.7919787367
 O         -2.4863868810       -0.4375994048       -1.7241358510
 C         -1.5528365737       -1.2715914056       -1.1239353095
 O         -1.1301874160       -2.1724410704       -1.8724533112
 O         -1.3042336360        0.4429390230        2.0440808146
 C         -0.1577209212       -1.8648879094        0.9022600830
 C          1.0709573076       -2.0033346098        0.0372388277
 C          1.7619985096       -3.1921203419       -0.1556629067
 C          2.9025319616       -3.2161586739       -0.9406980106
 C          3.3890821030       -2.0637168880       -1.5296424041
 C          2.7015438377       -0.8688041319       -1.3454900398
 C          1.5564430053       -0.8517837556       -0.5685325408
 H          1.0097937636        0.0721936297       -0.4611819643
 N          3.1477578649        0.3244128278       -1.9296415049
 S          2.8448326585        1.7916226208       -1.1961875628
 O          1.4643279609        2.1722187474       -1.3699732880
 O          3.8210832169        2.6860502247       -1.7820657708
 C          3.2220616659        1.5397893980        0.5297485321
 C          4.5335298745        1.2583935576        0.8617423623
 C          4.8552477797        1.0203238703        2.1874921752
 C          3.8635029013        1.0620370404        3.1561809065
 C          2.5537753054        1.3527241823        2.8088434267
 C          2.2273707020        1.5962631862        1.4839115238
 H          1.2136837434        1.8184373427        1.1878073236
 H          1.7745792747        1.3830309199        3.5539324768
 H          4.1112439984        0.8694931261        4.1880711125
 H          5.8742555469        0.7994566174        2.4612387660
 H          5.2783435629        1.2437939632        0.0829022097
 H          4.0540266505        0.2843716838       -2.3703833549
 H          4.2794349474       -2.0868082579       -2.1387610181
 H          3.4246179753       -4.1487036800       -1.0919236851
 H          1.3998087206       -4.1042413820        0.2889518335
 H          0.1317240775       -1.2561056449        1.7769707435
 C         -0.6721197088       -3.1871625848        1.4530102117
 C         -2.1371844815       -3.4301625978        1.6560348924
 C         -1.3922962949       -4.1856264376        0.5987168296
 H         -1.1978090777       -5.2355948240        0.7624017725
 H         -1.5603651360       -3.9250314680       -0.4341272915
 H         -2.4524725579       -3.9564139815        2.5447031052
 H         -2.8223058647       -2.6565371751        1.3396001797
 H         -0.0161325852       -3.5906273328        2.2181204492
