  62
        -98.94121641
 C         -2.1531708239       -0.7773634115       -0.3520696959
 C         -3.1422573612       -0.6487059681        0.6593566519
 C         -3.7318523379        0.6833953332        0.8366200202
 C         -3.2897980950        1.7007387697        0.0756695301
 C         -3.8252644287        3.1019415482        0.1172466416
 C         -4.9687791927        3.2911559771       -0.8893717726
 C         -6.0423393298        2.2054955324       -0.8145027685
 H         -6.8123989784        2.4589118270       -1.5462113618
 H         -5.6066797157        1.2523811123       -1.1227602126
 C         -6.6855910814        2.0434669739        0.5698221220
 H         -6.4945265826        2.9313524985        1.1735247635
 H         -7.7674456348        1.9622341691        0.4457974120
 C         -6.2315711276        0.8012799442        1.3388103195
 H         -6.3327228962       -0.0810347498        0.7019554600
 H         -6.9004593308        0.6668608727        2.1929527888
 C         -4.7981891003        0.8395698192        1.8841241008
 H         -4.6449098840        1.7583002258        2.4542314680
 H         -4.6769976405       -0.0094773578        2.5631581507
 H         -5.4230162154        4.2681826531       -0.7150525673
 H         -4.5466265257        3.2869238198       -1.8969074055
 H         -4.1730854502        3.3210560550        1.1249780207
 H         -3.0131561134        3.7867849888       -0.1330556842
 O         -2.3235178275        1.5498270743       -0.8627142707
 C         -1.7345485870        0.3179380915       -1.1076203668
 O         -0.8763420368        0.3563925132       -2.0131920415
 H          0.7571398216       -0.8845475254       -1.1745496738
 C          0.8739813197       -1.5092231931       -0.3012866482
 C         -0.2112332857       -2.2400571425        0.1613838373
 C         -0.0505096060       -3.0120364451        1.3059890015
 C          1.1653068474       -3.0497211332        1.9665658606
 C          2.2434323585       -2.3161211060        1.5042935106
 C          2.0881210871       -1.5332969947        0.3680860032
 N          3.1772376528       -0.7613506128       -0.1081358394
 S          3.6391368178        0.5133625129        0.9042004755
 O          4.0077086821       -0.0308630066        2.1861303493
 O          2.6181603092        1.5412755333        0.9191977203
 C          5.0917320419        1.0991514406        0.0552672360
 C          6.2798948111        0.4169125871        0.2333666518
 C          7.4076028031        0.8482430296       -0.4463374351
 C          7.3282748418        1.9469605150       -1.2892248796
 C          6.1281913426        2.6205894213       -1.4585042163
 C          4.9961057901        2.1934066736       -0.7820969833
 H          4.0438278763        2.6908834123       -0.8777403473
 H          6.0688080278        3.4752460744       -2.1131778485
 H          8.2073314099        2.2823616160       -1.8165569978
 H          8.3429587970        0.3281622984       -0.3170073455
 H          6.2948562237       -0.4259909153        0.9039089054
 H          2.9486896832       -0.3558451448       -1.0084658491
 H          3.1875235318       -2.3187198579        2.0230907304
 H          1.2741489181       -3.6541035012        2.8544529166
 H         -0.8941847633       -3.5684673396        1.6882886367
 C         -1.5477440325       -2.1603130029       -0.5375851722
 H         -2.2341892399       -2.8436447114       -0.0198147495
 C         -1.4474885211       -2.5891850889       -1.9879224421
 C         -1.3014015999       -4.0468470523       -2.3026077038
 C         -2.5855576461       -3.3384920865       -2.6105170218
 H         -2.8313915764       -3.1360888074       -3.6421271384
 H         -3.4450919169       -3.5475315419       -1.9903898624
 H         -0.6626971422       -4.3343657501       -3.1233647007
 H         -1.2896414372       -4.7370783547       -1.4727482244
 H         -0.9190663727       -1.8821061029       -2.6136235374
 O         -3.5189077366       -1.6127308834        1.3781676645
