  62
        -98.94873525
 C         -2.0636183561       -1.0064074172       -0.1721389072
 C         -1.2070568190       -1.7623783444       -1.0055763980
 C         -0.2922499746       -2.6804839564       -0.3216023889
 C         -0.3046267700       -2.7529347971        1.0220570354
 C          0.5782921002       -3.6321129980        1.8657738098
 C          1.9651464969       -3.0297228774        2.1322055046
 C          2.9282453791       -3.0690099692        0.9445979356
 H          3.9243836264       -2.8490285806        1.3334568577
 H          2.9534502488       -4.0773175026        0.5292473776
 C          2.5996724315       -2.0562399279       -0.1609982671
 H          3.5156484604       -1.5486951795       -0.4733394947
 H          1.9350659772       -1.2885720462        0.2433418620
 C          1.9684722079       -2.6605479986       -1.4151185972
 H          1.7313578543       -1.8441709391       -2.1016518324
 H          2.6894172952       -3.3176273059       -1.9066058767
 C          0.6818370823       -3.4550101735       -1.1585332318
 H          0.2044060897       -3.6521835428       -2.1218163107
 H          0.9156986869       -4.4069569844       -0.6824186485
 H          2.4120396581       -3.5886509498        2.9580943882
 H          1.8360024672       -1.9939047210        2.4581233722
 H          0.0673429750       -3.7589629127        2.8227041426
 H          0.6861517200       -4.6103184284        1.3955594344
 O         -1.1600535823       -2.0271926759        1.7886725539
 C         -2.0229453329       -1.1048615871        1.2192280823
 O         -2.7081428268       -0.4643989277        2.0411526396
 H         -0.4743972024        0.8633697800       -0.4595615472
 C         -1.1677524178        1.6564822477       -0.2242360374
 C         -2.5303523350        1.4121080991       -0.3436269919
 C         -3.4163619512        2.4359293218       -0.0373024412
 C         -2.9414199842        3.6567638877        0.4122309487
 C         -1.5870239474        3.8738379581        0.5826695468
 C         -0.6893515495        2.8590192687        0.2650521599
 N          0.6942389849        3.0498480701        0.4146737302
 S          1.7195104400        1.8617313564        1.0122044307
 O          0.9992101634        0.6792665850        1.4162413766
 O          2.5111852699        2.5090899832        2.0391805293
 C          2.7919872781        1.4861738092       -0.3632474368
 C          4.1508814080        1.4052233190       -0.1278346434
 C          4.9994054545        1.0789837674       -1.1738474414
 C          4.4773824404        0.8375398982       -2.4350895023
 C          3.1119464830        0.9265385393       -2.6576728593
 C          2.2588317216        1.2532488771       -1.6150463381
 H          1.1937478155        1.3244246745       -1.7669369674
 H          2.7033763384        0.7397480236       -3.6380954232
 H          5.1355513560        0.5793392923       -3.2494563627
 H          6.0613995183        1.0116649196       -1.0007749386
 H          4.5121312686        1.6032853096        0.8680649383
 H          0.9431118814        3.9425922400        0.8154932438
 H         -1.2224538173        4.8164341163        0.9623784289
 H         -3.6389950863        4.4447132632        0.6530058212
 H         -4.4774830640        2.2753244825       -0.1364212097
 C         -2.9624064674        0.0403184964       -0.8047988995
 H         -2.7797739891       -0.0337102015       -1.8880570963
 C         -4.4227950569       -0.2536177688       -0.5362692059
 C         -5.4709847724        0.1383082423       -1.5336243564
 C         -5.1106033202       -1.3046968450       -1.3535562078
 H         -5.8159547902       -1.9586140240       -0.8633020951
 H         -4.5305596738       -1.7888534692       -2.1256189332
 H         -5.1435713411        0.6314919178       -2.4363596982
 H         -6.4296421563        0.4744099718       -1.1681659344
 H         -4.6688802321       -0.1985568037        0.5182228407
 O         -1.2018652437       -1.6654803413       -2.2638921110
