  62
        -98.94633806
 C         -1.7899345875       -0.7434120500        0.2243103391
 C         -3.0868225157       -0.9997543348        0.7296802981
 C         -4.0105310236        0.1422676508        0.7345737174
 C         -3.5797050764        1.3386139154        0.2938037991
 C         -4.4306793848        2.5704835648        0.1916287606
 C         -5.0926669945        2.6742190940       -1.1895889927
 C         -5.7887116517        1.3895484452       -1.6392580961
 H         -6.2442267483        1.5896955241       -2.6115619878
 H         -5.0375416033        0.6109711929       -1.7915482134
 C         -6.8611226440        0.8752474219       -0.6686979100
 H         -7.1617950164        1.6750002149        0.0091017584
 H         -7.7444257444        0.5882495743       -1.2431476216
 C         -6.4434017829       -0.3497279412        0.1469831066
 H         -6.0542100497       -1.1205808520       -0.5231210283
 H         -7.3355799241       -0.7569774024        0.6301097553
 C         -5.4034691047       -0.0963016643        1.2456911762
 H         -5.7305046592        0.7317785150        1.8777305693
 H         -5.3459160078       -0.9979546761        1.8625965624
 H         -5.8151908947        3.4920131561       -1.1657132129
 H         -4.3234459553        2.9213916878       -1.9248998194
 H         -5.1913433309        2.5463836933        0.9694476290
 H         -3.7935329851        3.4428848862        0.3453612460
 O         -2.3178299652        1.5524368032       -0.1585097003
 C         -1.3950865322        0.5184850801       -0.2175143578
 O         -0.2823251110        0.8490371589       -0.6673726149
 O         -3.4513404963       -2.1270114995        1.1600452694
 C         -0.7889601684       -1.8823076231        0.1567410372
 C          0.4538640053       -1.5318214969        0.9355989388
 C          0.3211919249       -1.1304649276        2.2635042638
 C          1.4294624150       -0.7984647012        3.0170547668
 C          2.6962094956       -0.8516950813        2.4604193280
 C          2.8409221917       -1.2571532733        1.1403171476
 C          1.7250102915       -1.6050643595        0.3892413224
 H          1.8715682686       -1.9106340658       -0.6326481593
 N          4.1170004586       -1.3486696616        0.5518240200
 S          4.4483474066       -0.4911882800       -0.8482345564
 O          3.5625302604       -0.9087180360       -1.9026736892
 O          5.8611023997       -0.7031603719       -1.0790435403
 C          4.1719502685        1.2154031676       -0.4082985481
 C          2.8823843599        1.7037042667       -0.3457637856
 C          2.6890901849        3.0151108669        0.0622139273
 C          3.7743523448        3.8088917638        0.3981292542
 C          5.0633074963        3.3010131570        0.3298246085
 C          5.2653842615        1.9911475067       -0.0718410584
 H          6.2487056447        1.5549394274       -0.1439691817
 H          5.9071390063        3.9198402668        0.5894295435
 H          3.6137392237        4.8280195194        0.7132580690
 H          1.6816833324        3.3972449054        0.1121922147
 H          2.0431751402        1.0800789225       -0.6110168912
 H          4.8747608317       -1.2136053381        1.2070270402
 H          3.5643666146       -0.5864210116        3.0446691462
 H          1.3082975072       -0.4893161004        4.0442407841
 H         -0.6694108730       -1.0818056922        2.6952386891
 H         -1.2786319909       -2.7318243659        0.6561272890
 C         -0.5185424925       -2.2590466855       -1.2846645481
 C         -0.1084237513       -3.6573528668       -1.6335711457
 C         -1.4784385114       -3.1666406724       -1.9911924582
 H         -1.7040557282       -2.9722686234       -3.0291407769
 H         -2.3193144222       -3.5372519040       -1.4229639954
 H          0.6121196949       -3.7980162804       -2.4253971758
 H         -0.0194114170       -4.3681158250       -0.8258792755
 H         -0.0876632929       -1.4458679812       -1.8594519383
