  62
        -98.93214896
 C          2.5196669237        1.1357356817        0.5034239081
 C          3.3830431810        0.8323104157       -0.5759815961
 C          4.5458428460       -0.0248502249       -0.2646872836
 C          4.7170022963       -0.4935371440        0.9843566546
 C          5.8089616253       -1.3514828118        1.5889428365
 C          6.7817933690       -2.1215467809        0.6994784605
 C          6.1504710838       -3.2513886438       -0.1131967457
 H          6.9152277843       -3.6629541762       -0.7755861428
 H          5.8438811785       -4.0442629635        0.5737086639
 C          4.9295158188       -2.8645609626       -0.9441920692
 H          4.1188607563       -2.5518234890       -0.2827459170
 H          4.5867915011       -3.7595173172       -1.4706356008
 C          5.1673213206       -1.7745709428       -1.9874343443
 H          4.2707595174       -1.7148373010       -2.6101445876
 H          6.0027738107       -2.0571537185       -2.6308923164
 C          5.4341099819       -0.3668698353       -1.4263335338
 H          6.4802695058       -0.2377121342       -1.1596520710
 H          5.2035797468        0.3578328929       -2.2126412902
 H          7.5232659892       -2.5698931045        1.3665158867
 H          7.3185129490       -1.4383735734        0.0478660482
 H          5.2977614426       -2.0554823926        2.2532604985
 H          6.3877170209       -0.6832764273        2.2363785583
 O          3.8498243553       -0.1796322469        1.9924126338
 C          2.7477933983        0.6255252035        1.7826292349
 O          2.0547147453        0.8195106672        2.8025426379
 O          3.2182934560        1.2489538149       -1.7502688290
 C          1.2842584940        2.0102013362        0.3652903153
 C          0.0929925043        1.1805863133       -0.0397943656
 C          0.1272834901        0.3690712097       -1.1698141633
 C         -0.9766919722       -0.3847812373       -1.5233767443
 C         -2.1305980897       -0.3519822361       -0.7593870781
 C         -2.1749241627        0.4518832522        0.3711945235
 C         -1.0663699875        1.2133027038        0.7206081755
 H         -1.1008446335        1.8298000416        1.6092603070
 N         -3.3364832740        0.4751903254        1.1599349354
 S         -4.8174799594        0.7159680946        0.4067965719
 O         -4.6691094455        1.4808089430       -0.8092383404
 O         -5.6695399191        1.2857758966        1.4271912441
 C         -5.3819789037       -0.9300254951        0.0314929687
 C         -5.5054708726       -1.8286803411        1.0729464373
 C         -5.9496874878       -3.1123818831        0.7996736198
 C         -6.2640447794       -3.4727388348       -0.5023699169
 C         -6.1387374335       -2.5576110012       -1.5362854477
 C         -5.6939738938       -1.2719342055       -1.2696735950
 H         -5.5775451087       -0.5286122645       -2.0423659084
 H         -6.3845699289       -2.8396265100       -2.5474960239
 H         -6.6092309165       -4.4728195904       -0.7122286051
 H         -6.0490709095       -3.8266894737        1.6010788503
 H         -5.2549390920       -1.5082426329        2.0705290403
 H         -3.2562664940        1.0413550741        1.9920087108
 H         -2.9914272304       -0.9409610914       -1.0305106733
 H         -0.9379947159       -1.0088440933       -2.4034023124
 H          1.0262519998        0.3419335284       -1.7666450363
 H          1.0908346605        2.3893651903        1.3815894369
 C          1.5053504216        3.2229078432       -0.5289934722
 C          0.8385544683        3.4201118121       -1.8536604950
 C          0.4173869535        4.2456710123       -0.6777338024
 H          0.6804800676        5.2923303887       -0.6524661043
 H         -0.5404124379        4.0207620868       -0.2311395279
 H          1.4165880251        3.8853169723       -2.6373674756
 H          0.1604742006        2.6598521725       -2.2075450447
 H          2.5175336484        3.6048398509       -0.4439966090
