  62
        -98.94044143
 C         -2.0399449727       -0.4694195713        0.0683670650
 C         -2.6868305693        0.7085153126        0.5233340549
 C         -4.0388991563        0.9551789151        0.0087389788
 C         -4.5736498700        0.0854555861       -0.8673849100
 C         -5.9595844963        0.1812058394       -1.4348821975
 C         -6.9697717436       -0.5835105577       -0.5681013495
 C         -6.8767624935       -0.2574567086        0.9225081391
 H         -7.6550363998       -0.8314054985        1.4301172367
 H         -5.9161478374       -0.6096701914        1.3052037630
 C         -7.0389939598        1.2316675038        1.2581744612
 H         -7.5024088964        1.7524805538        0.4194682689
 H         -7.7139278128        1.3270806650        2.1114171634
 C         -5.7380101596        1.9413402524        1.6379970482
 H         -5.2231578568        1.3715209662        2.4156945501
 H         -5.9936631670        2.9160053691        2.0622539637
 C         -4.7521968601        2.1876229255        0.4888507880
 H         -5.2670827799        2.6814901886       -0.3379441077
 H         -3.9721957671        2.8601898223        0.8578869200
 H         -6.7947715827       -1.6542622930       -0.6957860316
 H         -7.9747814333       -0.3582581828       -0.9295426281
 H         -5.9519735651       -0.2523193901       -2.4363603645
 H         -6.2452231977        1.2290236931       -1.5057730447
 O         -3.9167979202       -1.0165343572       -1.3037630868
 C         -2.6371088450       -1.3284330054       -0.8554325890
 O         -2.1757999640       -2.3701181394       -1.3539962732
 O         -2.1533564788        1.5137738659        1.3341299576
 C         -0.6498767273       -0.7285680006        0.6211594217
 C          0.3967569271       -0.0930403133       -0.2570820555
 C          0.4489823473       -0.3570508003       -1.6222857834
 C          1.4225624369        0.2258028223       -2.4130247661
 C          2.3632782093        1.0783581720       -1.8611641960
 C          2.3201435176        1.3468176453       -0.5001109555
 C          1.3413308604        0.7610646656        0.2923512557
 H          1.3034722702        0.9864896548        1.3495260039
 N          3.2976050867        2.1904649773        0.0674817467
 S          4.8821830934        1.6564881585       -0.0814190042
 O          5.6257859516        2.3622296979        0.9367800137
 O          5.3207884394        1.8455091171       -1.4400491421
 C          4.7798377153       -0.0822290569        0.3003049222
 C          4.7424915895       -0.4602813414        1.6280138363
 C          4.5582977519       -1.7975720327        1.9393829879
 C          4.4004860257       -2.7272711571        0.9226989387
 C          4.4420764322       -2.3317541947       -0.4049634565
 C          4.6333782685       -0.9966963201       -0.7232964822
 H          4.6750743634       -0.6507237793       -1.7428083276
 H          4.3188699573       -3.0573828471       -1.1926728130
 H          4.2402044794       -3.7651628262        1.1666504441
 H          4.5286669049       -2.1096341276        2.9710658760
 H          4.8697146613        0.2930652246        2.3891462807
 H          3.1061305630        2.4304332228        1.0300956572
 H          3.1337244068        1.5348381480       -2.4615100269
 H          1.4500181942        0.0138930612       -3.4712290692
 H         -0.2792058301       -1.0279607727       -2.0526133059
 H         -0.6341135354       -0.1966813353        1.5857459305
 C         -0.3667450691       -2.1972610849        0.9075383631
 C          0.6760302897       -2.9967091885        0.1904929713
 C          0.9009967261       -2.5827155938        1.6114030476
 H          0.8556799091       -3.3318625698        2.3867975971
 H          1.6243370030       -1.8010450064        1.7905149275
 H          0.4487369734       -4.0296209020       -0.0231822251
 H          1.2573195669       -2.5109032161       -0.5770840685
 H         -1.2649302276       -2.7335093009        1.1948828576
