  62
        -98.93782153
 C          1.1995205958        1.5306820338        0.3568432257
 C          1.7161395198        0.5378530954        1.2229689028
 C          2.8845838138       -0.2318840677        0.7563968486
 C          3.3682681062        0.0156142194       -0.4743817568
 C          4.5170845149       -0.6540554656       -1.1806104134
 C          4.1480135310       -2.0438888536       -1.7221487797
 C          3.3647287109       -2.9255019493       -0.7528840366
 H          2.4304550620       -2.4266031458       -0.4848834650
 H          3.0877428311       -3.8389625813       -1.2868316311
 C          4.1189636212       -3.3339687006        0.5108927483
 H          3.4778765427       -4.0325871851        1.0548814401
 H          5.0270719750       -3.8701753612        0.2256587176
 C          4.5026495748       -2.2004999907        1.4651831600
 H          5.3733912894       -1.6597208698        1.1041958367
 H          4.7938686619       -2.6606324248        2.4139857943
 C          3.3719122487       -1.2273645706        1.7811942843
 H          3.6554633906       -0.6337959047        2.6589071496
 H          2.4880470214       -1.7973306187        2.0910462320
 H          5.0663561242       -2.5532210556       -2.0204378965
 H          3.5308595575       -1.9074361597       -2.6138956931
 H          4.7823151994       -0.0127598253       -2.0243095678
 H          5.3796049515       -0.7113133507       -0.5231316561
 O          2.8060309729        0.9437779305       -1.2991668558
 C          1.7015205056        1.6945662388       -0.9345503196
 O          1.2846727407        2.4485221571       -1.8337599207
 O          1.2104095143        0.2862731540        2.3512333176
 C         -0.0393679661        2.2819125864        0.8090686546
 C         -1.1468924876        2.0948628717       -0.1990898459
 C         -1.9853689900        3.1068702561       -0.6464377282
 C         -2.9938563173        2.8250493356       -1.5531772309
 C         -3.2017253968        1.5387496189       -2.0166433137
 C         -2.3643306678        0.5191404172       -1.5765363087
 C         -1.3533544548        0.8078548265       -0.6774487780
 H         -0.6876415612        0.0176846231       -0.3684321461
 N         -2.5193442058       -0.8004452462       -2.0222608315
 S         -2.0892189054       -2.0807007318       -1.0409185678
 O         -0.6549359424       -2.2018757415       -0.9580101105
 O         -2.7836657411       -3.2129151342       -1.6170060860
 C         -2.7924943819       -1.6992494368        0.5542201742
 C         -4.1710322361       -1.6892019790        0.6512498723
 C         -4.7585505307       -1.3609462647        1.8614124688
 C         -3.9612641112       -1.0435053033        2.9510731218
 C         -2.5801448119       -1.0639138324        2.8403137603
 C         -1.9868546753       -1.3962373224        1.6322264102
 H         -0.9132995926       -1.4125556420        1.5236965294
 H         -1.9512781948       -0.8156823097        3.6806265946
 H         -4.4170456323       -0.7808157429        3.8926334885
 H         -5.8327432031       -1.3500010541        1.9513487614
 H         -4.7564834130       -1.9525787231       -0.2145416192
 H         -3.3480109195       -0.9851803247       -2.5665355757
 H         -3.9895154154        1.3252917155       -2.7224351816
 H         -3.6327652966        3.6220908730       -1.9020110475
 H         -1.8397766790        4.1181237048       -0.3041229767
 H         -0.3473998606        1.7490537277        1.7259949186
 C          0.1877776241        3.7301212505        1.2152289170
 C          1.5586193374        4.2448990049        1.5353393984
 C          0.8433660642        4.7297920476        0.3118226951
 H          0.4652184700        5.7418494615        0.3090450776
 H          1.1807070650        4.3824378635       -0.6515189896
 H          1.6724141185        4.9189896767        2.3712703771
 H          2.3909941821        3.5686235570        1.4015193298
 H         -0.6155134086        4.1036861526        1.8429564064
