  62
        -98.94611106
 C         -1.6005287758       -1.3152698170        0.4017691286
 C         -1.5383654321       -0.2922807331       -0.5751268779
 C         -2.4044266613        0.8708892857       -0.3358286983
 C         -3.1522979835        0.9361640693        0.7803677754
 C         -4.0512623965        2.0739202077        1.1814987053
 C         -5.4509657200        2.0136868003        0.5547859100
 C         -5.5093186711        2.3415567811       -0.9377398820
 H         -6.5620406446        2.4724529565       -1.1959854635
 H         -5.0096880619        3.2935532439       -1.1202078674
 C         -4.9095642855        1.2598862137       -1.8470559192
 H         -4.8231434574        0.3233803608       -1.2911979219
 H         -5.5855352515        1.0724120994       -2.6844374699
 C         -3.5448834193        1.6132766718       -2.4386346769
 H         -3.6461464014        2.4723924099       -3.1056524291
 H         -3.2003261586        0.7643678654       -3.0348158725
 C         -2.4652150234        1.9307916227       -1.3954331175
 H         -1.4978094409        1.9561332387       -1.9036645956
 H         -2.6522962860        2.9083006591       -0.9507808006
 H         -5.8683850979        1.0187252027        0.7257674867
 H         -6.0778287124        2.7324654986        1.0873890681
 H         -4.1582111589        2.0168360967        2.2667907727
 H         -3.5797846789        3.0237798681        0.9276594273
 O         -3.1572505581       -0.0523571632        1.7126105274
 C         -2.4034865239       -1.1995705712        1.5412113035
 O         -2.5263647597       -2.0334221138        2.4594538455
 H          1.1398028668       -1.7767254091       -1.4968709606
 C          1.5007534848       -1.7623712812       -0.4811908466
 C          0.6762654907       -2.1824517068        0.5505787772
 C          1.1595227173       -2.1264858954        1.8546954391
 C          2.4354357066       -1.6614564020        2.1161762072
 C          3.2447210217       -1.2123519176        1.0866282040
 C          2.7629868165       -1.2511062339       -0.2147460200
 N          3.5431763622       -0.7199088616       -1.2590372483
 S          4.1824386137        0.8038386952       -0.9837201578
 O          4.2229998263        1.4488038599       -2.2781073568
 O          5.4566276463        0.6692447314       -0.3199522412
 C          3.0427999631        1.6481769630        0.1059112704
 C          3.5435315543        2.2629615275        1.2361825976
 C          2.6722476060        2.9210408193        2.0887687806
 C          1.3164749664        2.9466502169        1.8020079796
 C          0.8288288747        2.3253819567        0.6630900752
 C          1.6960455783        1.6734233787       -0.1990162283
 H          1.3205471955        1.1787341039       -1.0813164089
 H         -0.2273851927        2.3298908407        0.4428083032
 H          0.6331980668        3.4496235961        2.4680632617
 H          3.0506044123        3.4048341916        2.9748121886
 H          4.6028857957        2.2058768174        1.4273887276
 H          3.0748394463       -0.7472244239       -2.1539938038
 H          4.2326581265       -0.8218742375        1.2715474291
 H          2.7991901549       -1.6325326201        3.1318422945
 H          0.5130097303       -2.4351734725        2.6641142753
 C         -0.7576151336       -2.5788212449        0.2990957176
 H         -1.0839775234       -3.2267438760        1.1225753061
 C         -0.9713624353       -3.3104684191       -1.0094325475
 C         -0.4771803121       -4.7183794253       -1.1456462400
 C         -1.9481507923       -4.4448223432       -1.0621002572
 H         -2.5476116438       -4.5673578881       -1.9518570468
 H         -2.4654525503       -4.7031947377       -0.1495320559
 H         -0.0648401992       -5.0325255277       -2.0923024002
 H          0.0056247417       -5.1610718965       -0.2875165460
 H         -0.9178383964       -2.6698310067       -1.8802700017
 O         -0.8069469104       -0.3258718315       -1.5997300602
