  62
        -98.94539141
 C          2.4555714889        0.2488388560       -0.1431061097
 C          2.1606469343        1.3330697321       -1.0011125838
 C          1.6552064039        2.5491409228       -0.3530149477
 C          1.4960723310        2.5641146967        0.9829452075
 C          0.9807929928        3.7341646258        1.7705305857
 C         -0.5398806855        3.6688036205        1.9624369478
 C         -1.3199853198        3.4152218600        0.6724421929
 H         -1.1091631472        2.3995650936        0.3306582083
 H         -2.3819474274        3.4469786267        0.9285773489
 C         -1.0367698967        4.4152426835       -0.4569728457
 H         -0.5918883262        5.3224525578       -0.0459271096
 H         -1.9868711668        4.6978792040       -0.9151490870
 C         -0.1459128193        3.8753909397       -1.5773301387
 H         -0.5212833010        2.9017369813       -1.9020714534
 H         -0.2173944863        4.5579315308       -2.4285533396
 C          1.3416811672        3.7247746842       -1.2354896491
 H          1.8828517630        3.5483373435       -2.1698473214
 H          1.7140994529        4.6507800217       -0.7923412589
 H         -0.8689741105        4.6069541913        2.4148767700
 H         -0.7674567296        2.8551018686        2.6558146026
 H          1.4606698039        3.7216407135        2.7510994176
 H          1.2519747309        4.6548712511        1.2566057897
 O          1.7809849293        1.4994819173        1.7757000169
 C          2.2348098456        0.3085383855        1.2327587119
 O          2.4236496509       -0.5988432371        2.0679468762
 H          0.3109755383       -0.9186957250       -0.8875714945
 C          0.6213662548       -1.8835042046       -0.5169135625
 C          1.9777537257       -2.1587386636       -0.3950548985
 C          2.3623522630       -3.4144103771        0.0545995664
 C          1.4064092571       -4.3488655519        0.4157609626
 C          0.0596206527       -4.0415129575        0.3644415142
 C         -0.3356307443       -2.7925567907       -0.1018916066
 N         -1.7003989407       -2.4328997370       -0.1701858699
 S         -2.2001048007       -1.0523549589        0.6735480418
 O         -1.2966071738        0.0394801733        0.4339165366
 O         -2.4388016319       -1.4096870403        2.0586494200
 C         -3.7568263848       -0.7392763552       -0.1353221610
 C         -4.9303784669       -1.2070379678        0.4231613883
 C         -6.1258821328       -0.9798725017       -0.2406657638
 C         -6.1266705307       -0.2946269366       -1.4460077177
 C         -4.9402388371        0.1707808846       -1.9934945814
 C         -3.7423463380       -0.0541330081       -1.3344816497
 H         -2.7968303588        0.2943239246       -1.7179749254
 H         -4.9431901090        0.7064406176       -2.9291465437
 H         -7.0575351840       -0.1187642427       -1.9615297896
 H         -7.0502144143       -1.3372951128        0.1836836240
 H         -4.8832468021       -1.7241667003        1.3678039297
 H         -2.2992416992       -3.1961360772        0.1216276441
 H         -0.6819060955       -4.7576270161        0.6866124239
 H          1.7165630328       -5.3211707386        0.7680741817
 H          3.4090075619       -3.6581331236        0.1377684732
 C          2.9470573833       -1.0565970521       -0.7443126619
 H          2.9290511194       -0.9042134539       -1.8339959150
 C          4.3699401999       -1.3423033391       -0.3132207873
 C          5.2902151570       -2.1192481514       -1.2055698620
 C          5.4932693824       -0.6464927961       -1.0198479056
 H          6.3374141411       -0.3087271490       -0.4377151272
 H          5.2304036053        0.0151654793       -1.8321991169
 H          4.8981515220       -2.4601820169       -2.1517057438
 H          6.0004998590       -2.7936788070       -0.7515990614
 H          4.4580936259       -1.4750823506        0.7595567352
 O          2.3192059564        1.2868937964       -2.2524879755
