  62
        -98.93577795
 C         -1.9526390211       -1.5979371368        0.0260090045
 C         -1.6397551077       -0.2932399337       -0.4287781815
 C         -2.7766889233        0.6414901385       -0.5452173150
 C         -4.0181691403        0.2222085843       -0.2503000308
 C         -5.3176342734        0.9788398876       -0.3682053854
 C         -5.3425750595        2.4245352471        0.1474878214
 C         -4.4143911396        2.7042734206        1.3381671930
 H         -4.9839641131        3.2094676321        2.1206464799
 H         -4.0485819717        1.7654628274        1.7577418069
 C         -3.2279668730        3.5978237970        0.9699110777
 H         -3.5891324427        4.4103986398        0.3355617638
 H         -2.8328269492        4.0484572655        1.8835934256
 C         -2.0622918373        2.8980212183        0.2710265815
 H         -1.5373925250        2.2501037399        0.9783049676
 H         -1.3558980276        3.6692470645       -0.0419158970
 C         -2.4301263170        2.0444041550       -0.9533697556
 H         -3.2286225899        2.5045585622       -1.5306505327
 H         -1.5400021057        1.9624585024       -1.5827966425
 H         -6.3740142057        2.6412318767        0.4306581332
 H         -5.0912598276        3.1054143894       -0.6646230908
 H         -6.0454816705        0.3803720401        0.1849637387
 H         -5.6235521497        0.9678704627       -1.4184460546
 O         -4.2715614133       -1.0428310117        0.1916160753
 C         -3.2553958107       -1.9646213352        0.3691612646
 O         -3.6331547026       -3.0595790365        0.8328728679
 O         -0.4826576763        0.0856455641       -0.7396261984
 C         -0.8804180075       -2.6561976071        0.2244575690
 C          0.3315302754       -2.0365710187        0.8740580183
 C          0.2051322302       -1.5032132537        2.1538149510
 C          1.2771153838       -0.8921349360        2.7752330294
 C          2.5018409051       -0.8029546430        2.1367089870
 C          2.6375686624       -1.3311597348        0.8606189066
 C          1.5597954036       -1.9488755980        0.2399016441
 H          1.6775228842       -2.3325276347       -0.7613294298
 N          3.8768574723       -1.2478257636        0.1976304197
 S          4.6193841229        0.2482629629        0.0834117105
 O          5.6182979582        0.0877507213       -0.9499414443
 O          5.1104297993        0.6361315460        1.3822304337
 C          3.3513746484        1.3761887432       -0.4586351278
 C          3.0158941949        1.3836033666       -1.7973768714
 C          2.0115664047        2.2313823599       -2.2314817388
 C          1.3590846705        3.0477933591       -1.3219514814
 C          1.7022284377        3.0230406910        0.0199009892
 C          2.7070611168        2.1777706838        0.4602479856
 H          3.0059825847        2.1330544914        1.4947533962
 H          1.1879034989        3.6550743785        0.7262569176
 H          0.5773577202        3.7080377029       -1.6641523039
 H          1.7363182574        2.2491117934       -3.2739994723
 H          3.5538457874        0.7411006570       -2.4762116828
 H          3.8715914457       -1.6922429766       -0.7095279724
 H          3.3481391949       -0.3257770527        2.6036631188
 H          1.1603559859       -0.4796981826        3.7663419595
 H         -0.7544001959       -1.5627262633        2.6505569492
 H         -1.3169005097       -3.3746595854        0.9378234495
 C         -0.5494951245       -3.4439173576       -1.0349460911
 C         -1.5925386456       -3.6990336337       -2.0803975110
 C         -0.4383764008       -2.7925599654       -2.3798101905
 H          0.3234372621       -3.1455469539       -3.0600741881
 H         -0.6179607396       -1.7305477478       -2.4362134643
 H         -1.6206881975       -4.6717221253       -2.5482821216
 H         -2.5681531745       -3.2593893653       -1.9326991271
 H          0.1327107071       -4.2638718215       -0.8302969321
