  62
        -98.93816453
 C          0.8434330259        1.2834164918        0.4188054559
 C          1.3795691854        0.1173287720        1.0122177125
 C          2.2682521149       -0.6844216249        0.1655089869
 C          2.4699100796       -0.3239952476       -1.1148966044
 C          3.3047408665       -1.0703693828       -2.1206659380
 C          4.8029336676       -0.7420587391       -2.0618127452
 C          5.5453201554       -1.3158326200       -0.8543292154
 H          5.3464303751       -2.3856327999       -0.7836140969
 H          6.6129775600       -1.1945277904       -1.0475441232
 C          5.2031723272       -0.6359120039        0.4785755604
 H          4.7196111703        0.3239337418        0.2828834741
 H          6.1242535942       -0.4251936387        1.0264858522
 C          4.3067671995       -1.4624587563        1.4002235459
 H          4.1043229518       -0.8729847325        2.2979057461
 H          4.8325957551       -2.3702301894        1.7038974405
 C          2.9588895397       -1.8624864804        0.7844747510
 H          3.0997552084       -2.6537447290        0.0476044781
 H          2.3170838605       -2.2354340091        1.5858334263
 H          5.2600337148       -1.1441811451       -2.9689438243
 H          4.9223382362        0.3436331021       -2.0828001394
 H          3.1591979830       -2.1436721349       -1.9917013289
 H          2.9244228730       -0.7885066406       -3.1051825718
 O          1.9058872910        0.7836180186       -1.6615797939
 C          1.0823011254        1.6154473388       -0.9158432908
 O          0.6442216990        2.5951421752       -1.5459314885
 O          1.1185280357       -0.2422167830        2.1927307431
 C         -0.1124114345        2.1406580338        1.2425834020
 C         -1.3963550545        2.2467479033        0.4558771371
 C         -2.0368959180        3.3852735611       -0.0127056820
 C         -3.1762000971        3.2803070906       -0.7957169051
 C         -3.6889468800        2.0505532041       -1.1581283291
 C         -3.0608032846        0.9010731901       -0.6921152118
 C         -1.9597194411        1.0122932063        0.1350261182
 H         -1.4841133311        0.1111337392        0.4957256296
 N         -3.5208095025       -0.3801102111       -1.0360477959
 S         -2.3933092359       -1.5893929978       -1.3121469425
 O         -1.1599989235       -1.0761147242       -1.8624734524
 O         -3.0986433387       -2.5523523178       -2.1348703164
 C         -2.1194660181       -2.3149553718        0.2894941136
 C         -3.2013382481       -2.5047692973        1.1267403778
 C         -2.9959677699       -3.1079770144        2.3568292547
 C         -1.7224617646       -3.5170990833        2.7224940189
 C         -0.6489757868       -3.3257336307        1.8672400639
 C         -0.8461105605       -2.7176190300        0.6378541692
 H         -0.0338715994       -2.5294099471       -0.0478427425
 H          0.3418737207       -3.6392686177        2.1540559952
 H         -1.5624350457       -3.9856958975        3.6806635546
 H         -3.8276837668       -3.2566137502        3.0264851503
 H         -4.1751995903       -2.1736472091        0.8071461349
 H         -4.2653121910       -0.3970284845       -1.7181966767
 H         -4.5525091473        1.9760357239       -1.8012578012
 H         -3.6543440961        4.1800173225       -1.1529985891
 H         -1.6521883855        4.3674555188        0.1918729008
 H         -0.3370198402        1.5222504009        2.1287136979
 C          0.6285060389        3.3581406972        1.7704393400
 C          0.8439703443        4.6372682543        1.0241885982
 C         -0.0125565419        4.6229513467        2.2567692343
 H          0.3901333792        5.0741847535        3.1517303165
 H         -1.0801074109        4.7318306278        2.1618451435
 H          1.8210695479        5.0947955207        1.0883939937
 H          0.3955700477        4.7343317401        0.0490559839
 H          1.4806258569        3.0157994228        2.3545362849
