  62
        -98.93978729
 C         -1.7354204872       -1.3092968422        0.4988228569
 C         -1.5456275984       -0.2460906642       -0.4197142687
 C         -2.7659340270        0.2710453701       -1.0632622787
 C         -3.9581577336       -0.2739996829       -0.7652881259
 C         -5.2777179511        0.1902462515       -1.3085251540
 C         -5.9134958731        1.2448890024       -0.3921810306
 C         -4.9613819466        2.3737607544        0.0035272249
 H         -5.5263838037        3.0741853140        0.6224452695
 H         -4.1624912076        1.9669036453        0.6281643919
 C         -4.3408508059        3.1259350169       -1.1821124879
 H         -4.9236839930        2.9400981713       -2.0850836181
 H         -4.3887759392        4.1981402710       -0.9803652058
 C         -2.8723077957        2.7900523200       -1.4499250784
 H         -2.2961634983        2.8881630750       -0.5255978857
 H         -2.4782228064        3.5267076222       -2.1555509665
 C         -2.6008532054        1.4007547557       -2.0405263834
 H         -3.2281124876        1.2459447303       -2.9210173420
 H         -1.5530888083        1.3778928043       -2.3548361121
 H         -6.7849910997        1.6630834502       -0.8990761678
 H         -6.2554541050        0.7505946735        0.5200705210
 H         -5.1306911727        0.6009040971       -2.3054591804
 H         -5.9450793785       -0.6707493684       -1.3740398478
 O         -4.1014635219       -1.2934640784        0.1190343930
 C         -3.0065292192       -1.8150874922        0.7875202021
 O         -3.2908196977       -2.7149477942        1.6030853105
 H          1.9044730075       -0.9053448461        0.6143760420
 C          1.4767261019       -0.4367516378        1.4852869183
 C          0.2246221640       -0.8240787126        1.9383822717
 C         -0.3154228906       -0.1811199354        3.0490994583
 C          0.3850024020        0.8142800503        3.7019936356
 C          1.6368376432        1.1928863713        3.2507080247
 C          2.1787469859        0.5715973415        2.1329543735
 N          3.4571200028        0.9338990241        1.6590053198
 S          3.5486789212        1.6465335203        0.1339725000
 O          4.8094608171        2.3629083318        0.1587888931
 O          2.3806150958        2.4482047136       -0.1439409139
 C          3.6982370533        0.2909100183       -1.0061807617
 C          2.6534948364       -0.0238138739       -1.8508136746
 C          2.8261831637       -1.0545155899       -2.7627549655
 C          4.0240589599       -1.7510467731       -2.8055226840
 C          5.0588627700       -1.4274063221       -1.9402609456
 C          4.8989166860       -0.3921863370       -1.0342079304
 H          5.6817890970       -0.0923451029       -0.3576065829
 H          5.9872383307       -1.9745502552       -1.9738244719
 H          4.1498418389       -2.5519658514       -3.5173670436
 H          2.0198546072       -1.3100002090       -3.4320499461
 H          1.7248863950        0.5178095280       -1.7635407552
 H          3.9686647068        1.5157500499        2.3093589944
 H          2.1901640524        1.9714939477        3.7552874305
 H         -0.0449029745        1.3001572600        4.5651823784
 H         -1.2970064337       -0.4763704007        3.3956072708
 C         -0.5828362397       -1.9164244103        1.2825064233
 H         -1.0686642107       -2.4918043721        2.0875609120
 C          0.2687156631       -2.9084689687        0.5054709377
 C         -0.3857195471       -3.9136046436       -0.3946093954
 C          0.4792112371       -2.8372926260       -0.9746733983
 H          1.4499407967       -3.1118893418       -1.3603847890
 H          0.0076936111       -2.0316639974       -1.5133522338
 H         -1.4557539678       -3.8373025650       -0.5247391415
 H         -0.0172562662       -4.9281652637       -0.3899937393
 H          1.1053075600       -3.2657355108        1.0982205470
 O         -0.4272955286        0.2499533018       -0.7073908099
