  62
        -98.94240536
 C          1.1300474881        1.2256509553        0.7053128713
 C          1.8016038015        0.9437683075       -0.5119370376
 C          2.6000854280       -0.2931247858       -0.5249909008
 C          2.6292577762       -1.0950591886        0.5526574599
 C          3.3613444827       -2.4044331267        0.6689277184
 C          4.8449623587       -2.2624198491        1.0357453121
 C          5.7445493062       -1.7294872631       -0.0801234647
 H          6.7770876253       -1.8879462173        0.2373831690
 H          5.5875482154       -2.3187775141       -0.9841555204
 C          5.5487033834       -0.2398670932       -0.3950071995
 H          6.5232780518        0.2464460605       -0.4777353621
 H          5.0195114336        0.2405659220        0.4311096085
 C          4.7920575219        0.0388537394       -1.6940305518
 H          4.6764182502        1.1205873390       -1.8001849665
 H          5.3759735531       -0.3216439598       -2.5438974234
 C          3.3959908522       -0.5941718443       -1.7582378247
 H          2.8587095672       -0.1685640500       -2.6098721156
 H          3.4749534864       -1.6714691991       -1.9059902228
 H          5.2054595693       -3.2534423524        1.3208661663
 H          4.9273514255       -1.6136661972        1.9107304880
 H          2.8633736301       -2.9694109806        1.4600554474
 H          3.2650155926       -2.9592960820       -0.2651769377
 O          1.9513549763       -0.8029672379        1.6948682965
 C          1.2002054259        0.3579270619        1.7980264750
 O          0.6443675316        0.5040002681        2.9051506890
 H         -0.7255696088        0.9298697891       -1.1460817278
 C         -1.5097649291        1.2889638642       -0.4973011731
 C         -1.2023671843        2.0820892425        0.5992697805
 C         -2.2400455667        2.5316654992        1.4081868294
 C         -3.5524842874        2.2036429515        1.1189931029
 C         -3.8519714496        1.3944332754        0.0377684953
 C         -2.8211386106        0.9272249607       -0.7684149698
 N         -3.0781379783        0.0593874728       -1.8494299419
 S         -2.2820942390       -1.4174956622       -1.8163030273
 O         -0.8913321795       -1.2482583502       -2.1445129428
 O         -3.0500755115       -2.2672742630       -2.7008333838
 C         -2.4700702347       -1.9519513493       -0.1263725846
 C         -1.4730574760       -1.6603214144        0.7812131698
 C         -1.6700724488       -1.9611055525        2.1192935453
 C         -2.8566196215       -2.5542643696        2.5221625493
 C         -3.8449361649       -2.8552489081        1.5963767187
 C         -3.6572495472       -2.5434336136        0.2597074427
 H         -4.3997776063       -2.7589930114       -0.4916128679
 H         -4.7629094197       -3.3221951254        1.9150511415
 H         -3.0086764207       -2.7819636904        3.5653566718
 H         -0.9008047752       -1.7056292787        2.8319502729
 H         -0.5616043379       -1.1994707811        0.4332261132
 H         -4.0628906072       -0.0919079248       -2.0214201299
 H         -4.8729700831        1.1199158047       -0.1793079334
 H         -4.3484898154        2.5651255581        1.7514110133
 H         -2.0099353763        3.1300643547        2.2772042873
 C          0.2312387138        2.4342078550        0.9115541767
 H          0.2828186530        2.6591264414        1.9894595980
 C          0.7027896954        3.6758174917        0.1680335513
 C          0.0382936711        4.1898267123       -1.0697135388
 C         -0.1020743670        4.9409329088        0.2180647309
 H          0.4211535241        5.8784926445        0.3294554439
 H         -1.0608194646        4.9067627132        0.7122444881
 H         -0.8168091630        3.6501446986       -1.4467975815
 H          0.6703111275        4.5908230940       -1.8471711283
 H          1.7815113289        3.7849569221        0.2125007709
 O          1.7563795890        1.6656931504       -1.5393784170
