  62
        -98.94320324
 C         -1.5622204886       -1.5085994767        0.1310121126
 C         -2.5607216971       -0.9457227922        0.9651733689
 C         -3.2464350635        0.2407986785        0.4422655813
 C         -2.8904029165        0.7428643618       -0.7540848751
 C         -3.5245124804        1.9214234162       -1.4419625669
 C         -2.9744870963        3.2811869533       -0.9917234396
 C         -3.3967912569        3.7239451453        0.4093770155
 H         -3.1235261136        4.7761002699        0.5106014174
 H         -4.4815473121        3.6606640136        0.5009655644
 C         -2.7351980661        2.9309716429        1.5452522159
 H         -1.8653672043        2.3954976254        1.1565755612
 H         -2.3704075468        3.6214587826        2.3091277094
 C         -3.6616341983        1.9338464120        2.2417053954
 H         -4.4663834046        2.4724128758        2.7472851671
 H         -3.0853108165        1.4012028865        3.0028595137
 C         -4.2857158986        0.8912220884        1.3046497082
 H         -4.7466072428        0.1124143002        1.9174924048
 H         -5.0574385733        1.3532217737        0.6890900562
 H         -1.8852980147        3.2470299457       -1.0456832241
 H         -3.3256863599        4.0283577481       -1.7069226687
 H         -3.3216706125        1.8037176192       -2.5084441873
 H         -4.6040907279        1.8943713981       -1.2900900974
 O         -1.8976175642        0.2013129078       -1.5054663580
 C         -1.1957528012       -0.9217147514       -1.0822155290
 O         -0.2993474909       -1.2774677056       -1.8661255553
 O         -2.8640699337       -1.4140649310        2.0955809164
 C         -0.8235085820       -2.7325715046        0.6430118286
 C          0.6625130715       -2.5278879952        0.4921331679
 C          1.4862043457       -3.3540223368       -0.2593873712
 C          2.8378614366       -3.0770020981       -0.3763538003
 C          3.3967220085       -1.9796852911        0.2518113409
 C          2.5800986377       -1.1447726878        1.0050810987
 C          1.2290527913       -1.4272340272        1.1252736157
 H          0.5932999136       -0.7732717452        1.7106008875
 N          3.1368898150       -0.0202569293        1.6509522693
 S          3.8594902079        1.1560056406        0.7043072967
 O          4.9831836143        0.5762573573        0.0146801846
 O          4.1555794450        2.2415152526        1.6116949831
 C          2.6192530350        1.6733953992       -0.4679551757
 C          2.3637099912        0.8868108311       -1.5732907263
 C          1.3762914991        1.2818319069       -2.4615161828
 C          0.6693472566        2.4517603711       -2.2324747021
 C          0.9402273791        3.2328901397       -1.1188162909
 C          1.9189575603        2.8378124148       -0.2218759211
 H          2.1630038596        3.4154748246        0.6554208598
 H          0.3953336985        4.1480293849       -0.9461577779
 H         -0.0982967190        2.7528643083       -2.9284294903
 H          1.1515049130        0.6633916325       -3.3148046438
 H          2.9301264661       -0.0170625412       -1.7264680196
 H          2.4968260272        0.4244925064        2.2940183835
 H          4.4436166487       -1.7422273904        0.1538447578
 H          3.4656325960       -3.7242835993       -0.9700135474
 H          1.0673648586       -4.2016320049       -0.7759771668
 H         -1.0536901531       -2.7576988280        1.7217732235
 C         -1.3166600136       -4.0522162495        0.0697299190
 C         -2.7342474000       -4.2096405345       -0.3907161607
 C         -1.6159249898       -4.2365778695       -1.3867318527
 H         -1.3632391464       -5.1817712532       -1.8448674290
 H         -1.4817300499       -3.3867008877       -2.0367132449
 H         -3.2478527915       -5.1321108514       -0.1647231831
 H         -3.3706795423       -3.3371262061       -0.3592277607
 H         -0.8857387931       -4.9030728291        0.5888768794
