  62
        -98.93572449
 C         -2.1952090377       -1.2204939746       -0.1140968961
 C         -2.9762742627       -0.5416575774        0.8468021969
 C         -3.8489305502        0.5386606544        0.3500552516
 C         -3.8214401682        0.8477635657       -0.9591488596
 C         -4.6113947002        1.8977340949       -1.6990075631
 C         -4.7281189900        3.2752020284       -1.0282055311
 C         -6.1334612658        3.5806620400       -0.5070151975
 H         -6.2570530850        4.6644025028       -0.4498215428
 H         -6.8608936193        3.2076688326       -1.2308716200
 C         -6.4539337292        3.0066388865        0.8720336470
 H         -5.9001458758        3.5618784574        1.6323978597
 H         -7.5173811034        3.1721591457        1.0598443954
 C         -6.1517198518        1.5170274813        1.0474755058
 H         -6.4404014689        0.9606857341        0.1565183452
 H         -6.7686415656        1.1459006525        1.8686366906
 C         -4.6849969951        1.2234967835        1.3969256990
 H         -4.1824758464        2.1460249191        1.7030942997
 H         -4.6400695110        0.5578472140        2.2647788228
 H         -3.9988731940        3.3598035931       -0.2238093177
 H         -4.4745438472        4.0307438352       -1.7736230574
 H         -4.1121316005        1.9967514690       -2.6654875951
 H         -5.6084235820        1.4998437956       -1.9034484100
 O         -3.0292266032        0.1815249158       -1.8473769174
 C         -2.2050197245       -0.8615142612       -1.4613160011
 O         -1.5460470873       -1.3678281551       -2.3875306188
 H         -0.0583551300       -0.0479729248        0.8328216121
 C          0.6222451316       -0.7530390527        0.3699900871
 C          0.1538519884       -2.0158344148        0.0270997724
 C          1.0422236962       -2.9144908555       -0.5480655628
 C          2.3541058147       -2.5447365547       -0.7913326034
 C          2.8091072913       -1.2804336277       -0.4670087074
 C          1.9334815085       -0.3778721167        0.1229955899
 N          2.3819436895        0.9143912812        0.4488223464
 S          3.7913454036        1.0619175940        1.3500746703
 O          3.9935288875       -0.0832677475        2.2071771162
 O          3.6848628507        2.3461101044        2.0078868895
 C          5.0791102438        1.1434614570        0.1237644578
 C          6.1389816917        0.2595962392        0.1776102638
 C          7.1353312758        0.3494457891       -0.7820996750
 C          7.0545031588        1.3163116058       -1.7724664672
 C          5.9844129127        2.1980225037       -1.8108906168
 C          4.9859069967        2.1146375431       -0.8537777486
 H          4.1400329736        2.7817762124       -0.8464604211
 H          5.9245656960        2.9483551336       -2.5827735720
 H          7.8300040476        1.3837107856       -2.5190273232
 H          7.9682007212       -0.3345559303       -0.7538171492
 H          6.1560333549       -0.4793830538        0.9627252071
 H          1.6588803783        1.5104116069        0.8248434626
 H          3.8274987851       -0.9872361624       -0.6626638869
 H          3.0312009606       -3.2517666161       -1.2457080934
 H          0.7070813511       -3.9040810394       -0.8112138355
 C         -1.2861591644       -2.3500029005        0.3327967811
 H         -1.3960787053       -2.3992810440        1.4269277723
 C         -1.7450527985       -3.6648648518       -0.2616487838
 C         -1.4973665904       -4.9513543421        0.4662447764
 C         -2.8845814372       -4.3910085935        0.3859536012
 H         -3.6072949778       -4.8850864190       -0.2457936945
 H         -3.3119338342       -3.9495606732        1.2746442251
 H         -0.9839060370       -4.8985518735        1.4144744353
 H         -1.2695135931       -5.8347964145       -0.1108518536
 H         -1.6995054458       -3.6690112938       -1.3448207651
 O         -2.9466501140       -0.8227129221        2.0772741098
