  62
        -98.93637975
 C         -1.5537930604       -1.4859770346       -0.1731631444
 C         -1.6316190607       -0.0821943628       -0.3221787963
 C         -2.9758440795        0.5206471368       -0.2077940759
 C         -4.0371987133       -0.2778594745        0.0028086714
 C         -5.4909740173        0.0969085356        0.1430407023
 C         -6.0332183346        1.1271547549       -0.8596044195
 C         -6.3467901459        2.4837396570       -0.2266900563
 H         -7.0896090723        2.9945801360       -0.8433395133
 H         -6.7978176310        2.3146909924        0.7533215562
 C         -5.1491314039        3.4202241764       -0.0763938190
 H         -5.4745405027        4.2823635173        0.5106068362
 H         -4.8542557805        3.7908793540       -1.0605161472
 C         -3.9183643924        2.8071640239        0.5954069992
 H         -4.2131586245        2.1769136234        1.4337384653
 H         -3.3212873720        3.6235139419        1.0083033312
 C         -3.0193829919        2.0162493376       -0.3665015203
 H         -3.2815503912        2.2542557864       -1.4017740608
 H         -1.9800722956        2.3365525481       -0.2387574175
 H         -5.3309247208        1.2474370882       -1.6829622950
 H         -6.9586527684        0.7292834571       -1.2789456994
 H         -6.0364626078       -0.8439531429        0.0405801306
 H         -5.6630561105        0.4462434157        1.1640900430
 O         -3.9120612914       -1.6287497023        0.1459495572
 C         -2.6854154708       -2.2606410678        0.0818720850
 O         -2.7316337720       -3.4947944799        0.2586092023
 H          2.1036048823       -0.7236614668       -0.1008151088
 C          1.7487650156       -1.0375570666        0.8641273881
 C          0.6016586302       -1.8065624581        0.9648865651
 C          0.1747898822       -2.2080120271        2.2288690623
 C          0.8823814600       -1.8475493136        3.3587809580
 C          2.0181367948       -1.0616399474        3.2539045902
 C          2.4473107859       -0.6489008476        1.9998857071
 N          3.6013710942        0.1419303875        1.8456858937
 S          3.4427931985        1.6047526082        1.0239017904
 O          4.6121193368        2.3611724087        1.4253424985
 O          2.1689450330        2.2254396128        1.3010411071
 C          3.6020627880        1.1832446302       -0.6972437120
 C          2.5203448324        1.3112295673       -1.5461460593
 C          2.6810876622        0.9732280571       -2.8814979696
 C          3.9078544765        0.5179478277       -3.3398937822
 C          4.9838175785        0.3991182929       -2.4726917309
 C          4.8327506949        0.7365288163       -1.1375989774
 H          5.6429342155        0.6677502451       -0.4310783760
 H          5.9356835464        0.0435949045       -2.8329082739
 H          4.0236039598        0.2528578427       -4.3792219646
 H          1.8417268305        1.0612511179       -3.5534565742
 H          1.5712929183        1.6364596188       -1.1480492794
 H          4.1086654212        0.2933609715        2.7069115877
 H          2.5653184797       -0.7680199678        4.1374791714
 H          0.5439692475       -2.1715545756        4.3317124852
 H         -0.7222459514       -2.8073336834        2.3092504596
 C         -0.2172043360       -2.2079069844       -0.2385650044
 H         -0.4510234255       -3.2776450883       -0.1440189880
 C          0.4794494587       -1.9710247554       -1.5613648945
 C          1.6061770855       -2.8667343247       -1.9777369469
 C          0.2854216265       -2.9462493139       -2.6812540181
 H          0.2120980298       -2.5650476907       -3.6885002876
 H         -0.3443617064       -3.8037892364       -2.4932236109
 H          1.8738998809       -3.6723927917       -1.3111052731
 H          2.4432353145       -2.4291818895       -2.5004296487
 H          0.5441452922       -0.9224939418       -1.8229445433
 O         -0.6326497948        0.6487726642       -0.5502515716
