  62
        -98.92999789
 C         -2.4188514300       -1.0043368599        0.3208099401
 C         -2.9275508701        0.0242276504        1.1498834297
 C         -3.6982850303        1.1011252200        0.4983989293
 C         -3.8423681202        1.0705250095       -0.8392768007
 C         -4.5470945103        2.0650323891       -1.7227972011
 C         -3.7288213605        3.3486118091       -1.9397399215
 C         -3.0602953406        3.9053840097       -0.6853024717
 H         -2.4112324705        3.1398517699       -0.2558131014
 H         -2.4210058407        4.7375235496       -0.9917067820
 C         -4.0160272707        4.4219421700        0.3875565081
 H         -3.4063004307        4.8581249803        1.1829826179
 H         -4.6301916407        5.2202292697       -0.0350711922
 C         -4.9427099705        3.3800278601        1.0171221485
 H         -5.7672372105        3.1368862997        0.3523895085
 H         -5.3863710306        3.8353615704        1.9074635583
 C         -4.2473693004        2.1047534503        1.4838298189
 H         -4.9419203503        1.5435095005        2.1210282991
 H         -3.4101098604        2.3717379907        2.1387559889
 H         -4.3837016906        4.1061775589       -2.3733062918
 H         -2.9418918404        3.1271790090       -2.6648484614
 H         -4.6918232803        1.5779025387       -2.6895963009
 H         -5.5282854204        2.2931964791       -1.3170645012
 O         -3.2874425001        0.0897058993       -1.6056272703
 C         -2.5650268700       -0.9621124804       -1.0663487099
 O         -2.1234940199       -1.7581207207       -1.9146189696
 O         -2.7395904702        0.0536519108        2.3968719097
 C         -1.6335059299       -2.1205452295        0.9852177105
 C         -0.3230835298       -2.3312995496        0.2689716406
 C          0.0252073103       -3.5135976898       -0.3686218789
 C          1.2460273903       -3.6270436899       -1.0112826888
 C          2.1405435202       -2.5736332798       -1.0335875592
 C          1.8042903901       -1.3862403396       -0.3953893897
 C          0.5851447700       -1.2790056995        0.2564461203
 H          0.3197815599       -0.3536087494        0.7542076499
 N          2.6945238699       -0.2936590195       -0.4285853800
 S          4.3183179900       -0.6117382192       -0.0835809999
 O          4.9303419401       -1.1948564596       -1.2506116797
 O          4.4267831100       -1.3809898188        1.1366061704
 C          4.9424995898        1.0386679509        0.1621530795
 C          5.1246235297        1.5137013414        1.4468497493
 C          5.5926083095        2.8065289216        1.6230708189
 C          5.8651364294        3.5984739412        0.5179028486
 C          5.6763186595        3.1075121007       -0.7656578912
 C          5.2105248697        1.8154361806       -0.9490982508
 H          5.0578607098        1.3890109302       -1.9267253006
 H          5.8909765795        3.7260087904       -1.6221554915
 H          6.2298869193        4.6037751913        0.6579643482
 H          5.7431898594        3.1897574519        2.6194772887
 H          4.9071210697        0.8599371417        2.2763367196
 H          2.3624796698        0.4741151706        0.1398834697
 H          3.0930768702       -2.6544837699       -1.5316874292
 H          1.5031751305       -4.5499842901       -1.5092741685
 H         -0.6670810196       -4.3391499999       -0.3829259686
 H         -1.4060813699       -1.7287131291        1.9912815904
 C         -2.4214601097       -3.4042023596        1.1962932610
 C         -3.9064536797       -3.3704108497        1.3969138410
 C         -3.3320743596       -3.9776889100        0.1540171912
 H         -3.3708037195       -5.0519082001        0.0457142416
 H         -3.4288492497       -3.4423287004       -0.7770963990
 H         -4.3398909997       -4.0240677894        2.1388574612
 H         -4.3995117999       -2.4124090097        1.3164197206
 H         -1.8718100897       -4.1161330093        1.8049085313
