  62
        -98.94266835
 C          1.1241910262        1.6596311417        0.1659312237
 C          1.6195004001        0.7553552140        1.1316024401
 C          2.8399177203        0.0089539353        0.7811516977
 C          3.3934781874        0.1871428290       -0.4328340788
 C          4.6398032225       -0.4022650030       -1.0600751210
 C          5.3638837504       -1.5740674463       -0.4040961237
 C          4.5979579312       -2.8968842682       -0.4420568760
 H          5.1444947694       -3.6276031933        0.1583769548
 H          4.5828650068       -3.2584749186       -1.4733999131
 C          3.1508044126       -2.8422991212        0.0415371136
 H          2.7202915519       -3.8417445499       -0.0701558816
 H          2.5621352247       -2.1826246013       -0.6002673266
 C          2.9596728072       -2.4186681098        1.4958168567
 H          3.5345247908       -3.0774321470        2.1504694856
 H          1.8998383751       -2.5523406048        1.7317590106
 C          3.3326897347       -0.9619320282        1.8159111867
 H          4.4041271890       -0.8551322925        1.9671083031
 H          2.8393357173       -0.6868515990        2.7531171870
 H          5.6432042097       -1.3205734914        0.6143346372
 H          6.2939815258       -1.7172631329       -0.9609159664
 H          5.3439683779        0.4318422308       -1.1557557818
 H          4.3554537391       -0.6828890944       -2.0795230338
 O          2.8656565460        1.0574271497       -1.3437361595
 C          1.7216544178        1.7945267603       -1.0852646552
 O          1.3523594942        2.5173981463       -2.0304329347
 O          1.0650195624        0.5775179346        2.2507025232
 C         -0.1442555350        2.4347452438        0.4631047429
 C         -1.2594944564        2.0180311625       -0.4663146017
 C         -2.2507660276        2.8890136639       -0.9028416821
 C         -3.2652355104        2.4357818770       -1.7284778908
 C         -3.3299185160        1.1100161904       -2.1180849042
 C         -2.3453853944        0.2301050252       -1.6834304389
 C         -1.3247753456        0.6919315537       -0.8687355341
 H         -0.5503543792        0.0055752906       -0.5654822659
 N         -2.3603038351       -1.1222899471       -2.0525327346
 S         -1.7826771245       -2.2827662965       -0.9970351454
 O         -0.3434750447       -2.2453907986       -0.9414247898
 O         -2.3625281085       -3.5179363178       -1.4817754763
 C         -2.5040073728       -1.8629964970        0.5797236733
 C         -3.8712991316       -2.0192075449        0.7090811809
 C         -4.4807565711       -1.6593121431        1.8990741521
 C         -3.7172028935       -1.1439493380        2.9362190117
 C         -2.3466319795       -0.9992627914        2.7937728839
 C         -1.7306752239       -1.3625840578        1.6060443782
 H         -0.6657383908       -1.2496611304        1.4757756967
 H         -1.7416855042       -0.5965150596        3.5906578459
 H         -4.1912768109       -0.8556146182        3.8611616770
 H         -5.5462418446       -1.7766602702        2.0138411582
 H         -4.4284434313       -2.4330170702       -0.1156479816
 H         -3.1857670170       -1.4274970651       -2.5457086841
 H         -4.1236232385        0.7596596415       -2.7596699969
 H         -4.0229058519        3.1250054804       -2.0689425715
 H         -2.2238565575        3.9239470354       -0.6034711508
 H         -0.4343852390        2.1371298685        1.4830365707
 C          0.1197388751        3.9265075761        0.4494513923
 C         -0.6273860878        4.8390605758        1.3745752075
 C          0.8208994595        4.5454282883        1.6206176144
 H          1.5476670358        5.3219527662        1.4352657841
 H          1.0797613076        3.8937188937        2.4424359541
 H         -0.8950753598        5.8236194036        1.0216110969
 H         -1.3516248252        4.3944217522        2.0402258283
 H          0.3770349150        4.2924781378       -0.5380550820
