  62
        -98.94248249
 C          0.6843074418        1.4304548831        0.5235764440
 C          1.1953447322        0.8020912228       -0.6334302207
 C          2.2519155387       -0.2093655109       -0.4273169085
 C          2.5785512367       -0.5564801860        0.8311645392
 C          3.6505691748       -1.5086237542        1.2940943519
 C          5.0575628818       -0.9010321876        1.1926483313
 C          5.3580930811       -0.2167675873       -0.1378580917
 H          4.6525529762        0.6026124013       -0.2850935202
 H          6.3557594474        0.2242184267       -0.0646833690
 C          5.3392066501       -1.1324550191       -1.3603721129
 H          6.0404453621       -1.9546270203       -1.2024189380
 H          5.7044210723       -0.5445035869       -2.2061300732
 C          3.9756806113       -1.7154185114       -1.7454009952
 H          3.7257668860       -2.5753162646       -1.1302517134
 H          4.0593293849       -2.0805302846       -2.7728335800
 C          2.8304960896       -0.7086832133       -1.7283291238
 H          3.1287949873        0.1829459377       -2.2915274263
 H          1.9802655058       -1.1237510753       -2.2806613387
 H          5.1663402880       -0.1570738002        1.9858867455
 H          5.7870467075       -1.6930350525        1.3715927750
 H          3.4415927001       -1.7299813149        2.3432835090
 H          3.6036122746       -2.4398306740        0.7386436924
 O          1.9606525486       -0.0100264918        1.9203626774
 C          1.0437917747        1.0153114869        1.8039623049
 O          0.6233093813        1.4635020110        2.8913972805
 O          0.8163894223        1.0886053346       -1.7987098692
 C         -0.2897774787        2.5866951670        0.3923797018
 C         -1.5271026526        2.1510041086       -0.3520353911
 C         -2.0403555895        2.8251704409       -1.4520899264
 C         -3.1885305174        2.3702675865       -2.0768346219
 C         -3.8483871933        1.2461429534       -1.6172936227
 C         -3.3499282673        0.5726202700       -0.5066376947
 C         -2.1964520861        1.0250299462        0.1128694963
 H         -1.8182266558        0.5045649230        0.9815813788
 N         -4.0197642842       -0.5474808744        0.0017384180
 S         -3.2498667146       -1.7169627777        0.8929686748
 O         -4.1699550173       -2.8357208260        0.8666073420
 O         -2.9132332439       -1.2205153274        2.2041483702
 C         -1.7745761165       -2.1848442793        0.0069842754
 C         -1.8216889667       -2.3328778296       -1.3647938908
 C         -0.7062398784       -2.8211614358       -2.0249762549
 C          0.4260058014       -3.1696748683       -1.3056543970
 C          0.4608596540       -3.0070237631        0.0699700066
 C         -0.6465508466       -2.5049000298        0.7334024613
 H         -0.6558398387       -2.3546245553        1.8021276396
 H          1.3388996160       -3.2759049496        0.6338627669
 H          1.2846052183       -3.5734749235       -1.8184375447
 H         -0.7266868256       -2.9361183161       -3.0968185629
 H         -2.7192329056       -2.0727683498       -1.9015239466
 H         -4.7757075134       -0.9083438787       -0.5597295455
 H         -4.7449480652        0.8935595387       -2.1033497492
 H         -3.5740579422        2.8985043983       -2.9354350794
 H         -1.5400364892        3.7033016843       -1.8245917735
 H         -0.5903271680        2.8460094433        1.4185782795
 C          0.4081106406        3.7793079071       -0.2289453812
 C         -0.0597680707        5.1697043694        0.0752520766
 C          1.2329232311        4.6718216570        0.6468556680
 H          2.1582821455        5.0676262983        0.2558429411
 H          1.2715247294        4.4338680795        1.7003293674
 H         -0.0194382758        5.9118636705       -0.7076156079
 H         -0.8999591145        5.2785989049        0.7443381596
 H          0.7850299335        3.5698966025       -1.2233741894
