  62
        -98.93019542
 C         -2.3417015995       -0.8582307165        0.2936990395
 C         -2.4497987294        0.5470426183        0.4400318169
 C         -3.6518249266        1.1930864860       -0.1145358902
 C         -4.5864263294        0.4337652766       -0.7157401598
 C         -5.8835044845        0.8035318247       -1.4048351842
 C         -6.4881262415        2.1947261389       -1.2356814199
 C         -7.0024692875        2.5008177649        0.1705637946
 H         -7.3145285067        3.5469992454        0.2003941965
 H         -7.8849381103        1.8843508612        0.3593339115
 C         -6.0128783110        2.2456218701        1.3046819205
 H         -6.5105178838        2.4956058843        2.2456324856
 H         -5.7653253327        1.1828823790        1.3446723897
 C         -4.7178754053        3.0528777154        1.2369580156
 H         -4.1811714777        2.8951179164        2.1765650799
 H         -4.9503679051        4.1168713159        1.1601130004
 C         -3.7613560031        2.6764480450        0.0920836309
 H         -4.0383969788        3.1735023461       -0.8347439087
 H         -2.7587072152        3.0221787080        0.3612775579
 H         -5.7810252903        2.9538401175       -1.5569038907
 H         -7.3414237148        2.2478796954       -1.9172395783
 H         -5.7105959024        0.6285604680       -2.4724063762
 H         -6.6141387540        0.0538966931       -1.0850312730
 O         -4.4414491066       -0.9169848815       -0.8321022836
 C         -3.3344447324       -1.5997064294       -0.3456632572
 O         -3.3803146546       -2.8257867539       -0.5490968410
 H          1.4592042137       -0.6427309003        1.0334665694
 C          1.2527915237       -1.1168456216        0.0856770283
 C         -0.0147354747       -1.6139283104       -0.1800151309
 C         -0.2608051344       -2.1989072585       -1.4189513092
 C          0.7441669599       -2.2800225049       -2.3649984974
 C          2.0048590368       -1.7747713546       -2.0998585741
 C          2.2621164710       -1.1904037450       -0.8650956188
 N          3.5464535963       -0.7072184090       -0.5603214362
 S          3.6903761717        0.7016283040        0.3626142165
 O          3.4686707136        0.3719343313        1.7476672102
 O          2.8657629085        1.7482989424       -0.1976590628
 C          5.4164093147        1.0673377336        0.1035297516
 C          6.3580590210        0.3747429110        0.8410215814
 C          7.7018468597        0.6335900265        0.6233131122
 C          8.0798803086        1.5746493888       -0.3229508767
 C          7.1235629622        2.2637493899       -1.0533920348
 C          5.7776343472        2.0087436289       -0.8414845078
 H          4.9988291251        2.5258869274       -1.3788295013
 H          7.4203129339        2.9974988413       -1.7853950248
 H          9.1264239329        1.7749863851       -0.4898041572
 H          8.4481406467        0.1023257912        1.1915098007
 H          6.0165379238       -0.3397982161        1.5714664913
 H          4.1431292159       -0.6631579641       -1.3760305676
 H          2.7853864689       -1.8336479312       -2.8432920415
 H          0.5414533440       -2.7358017568       -3.3225827661
 H         -1.2455631444       -2.5888951149       -1.6279981049
 C         -1.0962634835       -1.5108541502        0.8653993823
 H         -0.7377651217       -0.8046636406        1.6323583822
 C         -1.3740577886       -2.8343548320        1.5656241964
 C         -0.8965447397       -4.1592588521        1.0598452405
 C         -0.2587828887       -3.5497711381        2.2696743439
 H         -0.4524501763       -3.9863315666        3.2377302605
 H          0.7348692452       -3.1402192147        2.1598259939
 H         -1.5537298953       -5.0057160730        1.1873853231
 H         -0.3306079105       -4.1830624065        0.1423995433
 H         -2.3395739173       -2.8321032772        2.0615774573
 O         -1.5696960484        1.2424878871        1.0182256493
