  62
        -98.94049711
 C          2.3200793534       -0.3278478165       -0.2331529918
 C          3.5410690441       -0.8329239906       -0.7414143324
 C          4.6962294732        0.0654481223       -0.6393618347
 C          4.5395730665        1.2962764449       -0.1186589479
 C          5.6144275771        2.3394887728        0.0253960303
 C          6.4690643339        2.1844832537        1.2907884258
 C          7.4513877019        1.0127492793        1.2719901705
 H          8.0500206904        1.0566933277        0.3616915774
 H          8.1304250542        1.1505499284        2.1157529026
 C          6.7915153645       -0.3682124480        1.3904822701
 H          7.3351821431       -0.9702184443        2.1220742071
 H          5.7717714900       -0.2541288469        1.7655803793
 C          6.7521556595       -1.1664846367        0.0872861041
 H          7.7706048243       -1.4027467381       -0.2287971026
 H          6.2315463099       -2.1082630725        0.2787271199
 C          6.0349266613       -0.4554854880       -1.0678750993
 H          6.6535655386        0.3545033583       -1.4534025863
 H          5.8683984355       -1.1816262734       -1.8672330914
 H          5.8034432982        2.0887527004        2.1517570861
 H          7.0399709856        3.1077626474        1.4131911188
 H          6.2585348875        2.3261043461       -0.8541972052
 H          5.1051446860        3.3044841322        0.0699447385
 O          3.3414861951        1.7549864782        0.3324653477
 C          2.2090694392        0.9530426517        0.3075906616
 O          1.1914102175        1.4925195582        0.7818911507
 H         -1.4921171807       -0.5244713025        0.4760077369
 C         -1.2531215122       -0.2531799753       -0.5381465499
 C         -0.0037230816       -0.5273360943       -1.0690320138
 C          0.2595451504       -0.1531440381       -2.3851013654
 C         -0.7027024909        0.4825863878       -3.1443564839
 C         -1.9509990314        0.7528953835       -2.6109976624
 C         -2.2221263803        0.3889346653       -1.2976846794
 N         -3.4661723302        0.6868266050       -0.7201676797
 S         -4.1075320318       -0.3403698638        0.4518448703
 O         -3.4981969806       -0.0519550558        1.7255263837
 O         -4.0337932900       -1.7135404525        0.0044534541
 C         -5.8015932381        0.2171486124        0.4609555360
 C         -6.7645625313       -0.5062594947       -0.2166498555
 C         -8.0715011833       -0.0441395210       -0.2195318406
 C         -8.3907149336        1.1282674836        0.4486129695
 C         -7.4131901138        1.8435055890        1.1248381716
 C         -6.1051323479        1.3863372799        1.1331248328
 H         -5.3139337028        1.9024763842        1.6519027747
 H         -7.6654503537        2.7532342107        1.6454910616
 H         -9.4082283443        1.4859294791        0.4451229154
 H         -8.8342951436       -0.5993429944       -0.7411871798
 H         -6.4709397579       -1.4157955695       -0.7154912721
 H         -4.1618908330        0.9653169481       -1.3982373505
 H         -2.7039047634        1.2510039898       -3.2027093139
 H         -0.4831264576        0.7663594855       -4.1627512056
 H          1.2349342950       -0.3668115140       -2.8012474839
 C          1.0860706845       -1.2105926566       -0.2815626965
 H          1.3928730827       -2.1120024321       -0.8332423665
 C          0.6643654001       -1.6178299118        1.1139268846
 C         -0.1538996699       -2.8568770625        1.3158545396
 C          1.2819031886       -2.8284753785        1.7440159165
 H          1.5054652459       -2.8027456324        2.8000028057
 H          2.0012065099       -3.3807400975        1.1570207931
 H         -0.9244792669       -2.8462416521        2.0724691392
 H         -0.4149335596       -3.4297846199        0.4386460898
 H          0.4638349685       -0.7672009694        1.7569632719
 O          3.6572665978       -1.9748022297       -1.2619511522
