  62
        -98.93541359
 C         -1.9869841423       -0.3835510765       -0.0427433653
 C         -3.0825942801       -1.0679546527        0.5406640475
 C         -4.3254618053       -0.3021084436        0.7389801879
 C         -4.3563385247        0.9995238095        0.3990619181
 C         -5.4515775877        2.0385472819        0.5208434346
 C         -6.8874169455        1.6260745086        0.8337192072
 C         -7.5871374971        0.8516005919       -0.2831850692
 H         -8.5568342651        0.5145046519        0.0894022199
 H         -7.7705584909        1.5350522958       -1.1161950066
 C         -6.8214210146       -0.3487641623       -0.8340274266
 H         -5.8869463992       -0.0104516323       -1.2866093458
 H         -7.4232933676       -0.7915247136       -1.6323624369
 C         -6.5136963619       -1.4487391188        0.1798817721
 H         -6.1072516508       -2.3010871795       -0.3715370612
 H         -7.4380974197       -1.7736276743        0.6612807435
 C         -5.4970529468       -1.0756861692        1.2721508768
 H         -5.9738638818       -0.5385571039        2.0885096013
 H         -5.0888088794       -2.0031238449        1.6844431962
 H         -7.4486047270        2.5506222907        0.9947049179
 H         -6.9242678288        1.0705207014        1.7661941160
 H         -5.4367931358        2.5995300444       -0.4192499224
 H         -5.1132611875        2.7337619308        1.2972363925
 O         -3.2611122541        1.6300023941       -0.1149697479
 C         -2.0615446003        0.9732305288       -0.3565602561
 O         -1.1815958849        1.7080833003       -0.8405953731
 O         -3.0245972776       -2.2764072618        0.8919504451
 C         -0.7052519979       -1.1713043068       -0.2515686676
 C          0.4659628701       -0.4152160189        0.3196967709
 C          0.6288155865       -0.3649613580        1.7010236829
 C          1.6751108804        0.3399726501        2.2654720932
 C          2.5816007212        1.0103977439        1.4635907976
 C          2.4271015696        0.9669005455        0.0844727871
 C          1.3831481145        0.2465596980       -0.4812240279
 H          1.2619457756        0.2386461203       -1.5530911173
 N          3.3460030885        1.6456698926       -0.7325859435
 S          4.9744569912        1.4590674212       -0.4085899078
 O          5.3593182079        2.3147145788        0.6862609702
 O          5.6446161660        1.7038833607       -1.6664647316
 C          5.1461973892       -0.2510997395        0.0712644637
 C          5.5249073612       -0.5755033685        1.3576376835
 C          5.6002838718       -1.9118547504        1.7172102350
 C          5.2934166996       -2.8949863228        0.7898355416
 C          4.9186265782       -2.5531187165       -0.5007732765
 C          4.8420866781       -1.2191658169       -0.8655816030
 H          4.5605478082       -0.9181737136       -1.8619042942
 H          4.6828368127       -3.3202052240       -1.2208847959
 H          5.3472371121       -3.9344052692        1.0727776786
 H          5.8936025738       -2.1807942815        2.7191634060
 H          5.7538325254        0.2199715262        2.0477629334
 H          3.1467027083        1.5824618409       -1.7194143133
 H          3.3942479497        1.5801498282        1.8842930209
 H          1.7852494177        0.3726529993        3.3387537876
 H         -0.0851708501       -0.8794682444        2.3293510417
 H         -0.8490756616       -2.0810181764        0.3537298629
 C         -0.4751534581       -1.6393690925       -1.6808116423
 C         -1.6297779412       -2.0520834567       -2.5425382313
 C         -0.8443572848       -0.8222894761       -2.8812474414
 H         -0.1911910488       -0.8552298423       -3.7416584867
 H         -1.2973942200        0.1428428194       -2.7172912941
 H         -1.5212590588       -2.9239286630       -3.1698559893
 H         -2.6228355063       -1.9265647309       -2.1361942043
 H          0.4259498655       -2.2398135320       -1.7633855219
