  62
        -98.93172541
 C         -2.0658226359       -1.2471007864       -0.2344837861
 C         -2.3321108929       -0.3997177643        0.8716189088
 C         -2.5101576690        1.0296644165        0.5903730436
 C         -2.3737387948        1.4616421806       -0.6757759483
 C         -2.5540317838        2.8791535188       -1.1410380092
 C         -4.0536272275        3.2307809518       -1.2148441324
 C         -4.4980249731        4.3060073716       -0.2230955499
 H         -5.5898995962        4.3142569545       -0.2171261394
 H         -4.1616874297        5.2806258131       -0.5826801837
 C         -3.9924081536        4.1357609817        1.2123750559
 H         -4.5846834383        4.8046852477        1.8403076935
 H         -2.9584174532        4.4770525593        1.2802354136
 C         -4.0765448957        2.7159704820        1.7873454778
 H         -4.8423467991        2.1362512701        1.2718858516
 H         -4.3824071921        2.7902645847        2.8328392937
 C         -2.7491883638        1.9354264162        1.7666310289
 H         -2.7180866551        1.2719312470        2.6363064245
 H         -1.9094055632        2.6306627991        1.8585192363
 H         -4.6260982318        2.3166423420       -1.0450204176
 H         -4.2971157175        3.5717329952       -2.2221975169
 H         -2.0316162818        3.5508373770       -0.4629990990
 H         -2.0934555130        2.9548999141       -2.1266081355
 O         -2.1269993867        0.6241140442       -1.7138842302
 C         -1.9367710081       -0.7425223772       -1.5281171384
 O         -1.6927505653       -1.3532865642       -2.5850554709
 H          0.4519095634       -1.3775394541       -0.6907574724
 C          0.6363055513       -1.9825708146        0.1855777037
 C         -0.3836710892       -2.7537041360        0.7234595370
 C         -0.1129153792       -3.5277169088        1.8452578835
 C          1.1460379245       -3.5145260743        2.4199990827
 C          2.1458988539       -2.7070382346        1.9088803332
 C          1.8843844500       -1.9306945842        0.7853666196
 N          2.8614048790       -1.0825920143        0.2372734683
 S          2.3263378413        0.4022474412       -0.3775629906
 O          1.2907174663        0.9502717802        0.4686066757
 O          2.0035454432        0.2336755022       -1.7724304121
 C          3.8188648442        1.3683222930       -0.2271452129
 C          3.9723526930        2.2111587621        0.8572787268
 C          5.1479120990        2.9349376535        0.9830792427
 C          6.1460402651        2.8009319354        0.0297382298
 C          5.9776953256        1.9506773030       -1.0532872888
 C          4.8040559344        1.2257256760       -1.1862355703
 H          4.6223280211        0.5611613507       -2.0147846803
 H          6.7545570025        1.8509434455       -1.7939242519
 H          7.0597535025        3.3649939281        0.1299273531
 H          5.2794161748        3.5989564151        1.8221237578
 H          3.1650454425        2.2867960639        1.5681567367
 H          3.6667643907       -0.9693993464        0.8383411050
 H          3.1175431718       -2.6699591762        2.3773770835
 H          1.3434320484       -4.1187469807        3.2923515105
 H         -0.9034208379       -4.1190545358        2.2832838267
 C         -1.7644806860       -2.6954316781        0.1147849945
 H         -2.4795425837       -2.9654203477        0.9097890629
 C         -1.9523274084       -3.6827408155       -1.0239532922
 C         -0.8079259469       -4.2370000451       -1.8125928447
 C         -1.5492778812       -5.1180397238       -0.8549395446
 H         -2.1973601277       -5.8831379919       -1.2542390957
 H         -1.0460606721       -5.3931275909        0.0592243217
 H          0.1886132335       -3.9151575493       -1.5506861080
 H         -0.9517690061       -4.3720337610       -2.8734161566
 H         -2.8663643942       -3.4937568441       -1.5762215155
 O         -2.4167946422       -0.8348452265        2.0532630055
