  62
        -98.94340482
 C         -2.4912707603       -1.1237212472        0.0003228745
 C         -3.4645294068       -0.6110764463        0.9002765260
 C         -4.4409265440        0.3334334252        0.3451928286
 C         -4.3786885748        0.6458862448       -0.9616413841
 C         -5.2767056765        1.6282062749       -1.6546589758
 C         -4.6785400368        3.0417952339       -1.6310850098
 C         -4.2058718431        3.4894683606       -0.2478645074
 H         -3.3614818700        2.8678177885        0.0590262350
 H         -3.8328380832        4.5111365179       -0.3468657811
 C         -5.2893479395        3.4436970917        0.8386790108
 H         -5.2413287507        4.3669414377        1.4198065751
 H         -6.2762975874        3.4033287943        0.3764187588
 C         -5.1459989859        2.2864415428        1.8289893552
 H         -4.1273692684        2.2665242493        2.2245348897
 H         -5.8198907816        2.4729341587        2.6693658055
 C         -5.4765944239        0.8931586613        1.2792301458
 H         -6.4575591142        0.9098461898        0.7998955823
 H         -5.5194457179        0.2029506095        2.1267530196
 H         -3.8230333143        3.0670785038       -2.3100949813
 H         -5.4295143635        3.7401005209       -2.0049825884
 H         -5.3975534422        1.3112216590       -2.6919271815
 H         -6.2504930824        1.6261983439       -1.1687120045
 O         -3.4468495699        0.1255359329       -1.7972784919
 C         -2.4779416199       -0.7591650681       -1.3458602473
 O         -1.6939727587       -1.1268474422       -2.2454744036
 O         -3.5167733777       -0.9391957224        2.1153721134
 C         -1.4881747432       -2.1071795270        0.5801834201
 C         -0.1512513391       -1.4603627515        0.8564535420
 C          0.3495802163       -1.3885336933        2.1511698388
 C          1.5865566273       -0.8189338619        2.3977279089
 C          2.3459599899       -0.3053962569        1.3618254885
 C          1.8530883774       -0.3686094282        0.0648862829
 C          0.6164404141       -0.9486159588       -0.1801053522
 H          0.2367684133       -0.9920788655       -1.1903518770
 N          2.6021679562        0.1749209081       -0.9937139884
 S          4.2068137310       -0.2912201866       -1.1509011631
 O          4.5322033100       -0.0762663961       -2.5439223202
 O          4.4249312477       -1.6245751579       -0.6388203180
 C          5.0943884084        0.8935677636       -0.1610087462
 C          5.9696919157        0.4579421395        0.8145103595
 C          6.6606246839        1.3982006185        1.5631503895
 C          6.4656870299        2.7497407473        1.3234243336
 C          5.5843551928        3.1707782090        0.3385052863
 C          4.8915720196        2.2361232899       -0.4142467909
 H          4.1996270860        2.5210291017       -1.1893719130
 H          5.4348301332        4.2226852199        0.1553670069
 H          7.0035070634        3.4797527769        1.9074965943
 H          7.3461715662        1.0729508718        2.3290777209
 H          6.0840006004       -0.6030611773        0.9693616170
 H          2.1272938840        0.1232663313       -1.8838679634
 H          3.3093721439        0.1406543410        1.5476083131
 H          1.9630157012       -0.7715662501        3.4081021160
 H         -0.2428251285       -1.7755195746        2.9674537851
 H         -1.9160400230       -2.4096065721        1.5455390067
 C         -1.3099721087       -3.3498250757       -0.2713957124
 C         -0.7929795299       -4.6016261270        0.3687585369
 C         -2.2247136842       -4.5181247869       -0.0667395782
 H         -2.5378399080       -5.0839614345       -0.9313258610
 H         -2.9851408107       -4.4292477324        0.6954252728
 H         -0.1172976448       -5.2262889078       -0.1952314450
 H         -0.5827973301       -4.5717440092        1.4271272127
 H         -0.9967707683       -3.1372234295       -1.2854956618
