  62
        -98.93757567
 C         -1.9771183441       -0.8678486638        0.4920013247
 C         -2.1051739215       -0.1912745327       -0.7426624114
 C         -2.3662946679        1.2567143926       -0.6691749998
 C         -2.4295687328        1.8499840270        0.5352000623
 C         -2.7222106919        3.2957513399        0.8282260682
 C         -4.2246407287        3.5081883072        1.0813374915
 C         -5.0586804824        3.7687128359       -0.1724666524
 H         -6.1080820583        3.7693618591        0.1307309266
 H         -4.8270035631        4.7645944346       -0.5556230470
 C         -4.8743295561        2.7542249060       -1.3040267288
 H         -5.7496671387        2.8148244271       -1.9534811984
 H         -4.8460004519        1.7441014842       -0.8916011407
 C         -3.6143902374        3.0094977166       -2.1446330221
 H         -3.2227079739        3.9985075664       -1.9076494642
 H         -3.8835570918        3.0277184799       -3.2026522278
 C         -2.4995524500        1.9637562721       -1.9903800935
 H         -2.6490008695        1.1599878824       -2.7183836573
 H         -1.5358024206        2.4257925612       -2.2306502809
 H         -4.3490016667        4.3593990089        1.7537681141
 H         -4.6035758246        2.6237979735        1.6000048296
 H         -2.3628519043        3.9298927425        0.0232186655
 H         -2.1741761465        3.5432975569        1.7399621118
 O         -2.2821265294        1.1625315744        1.7025183488
 C         -2.0432263282       -0.1985894821        1.7117338040
 O         -1.9157964853       -0.6941897619        2.8521782186
 O         -2.0121447018       -0.7686476640       -1.8584858847
 C         -1.6699804782       -2.3524605539        0.5123664756
 C         -0.3765822318       -2.6346731682       -0.2164615906
 C         -0.1612217020       -3.7983897327       -0.9442837138
 C          1.0544619466       -4.0173630291       -1.5691893011
 C          2.0738876663       -3.0876772173       -1.4867008419
 C          1.8655512781       -1.9153679291       -0.7665241846
 C          0.6551204698       -1.7094007331       -0.1266519341
 H          0.5107383237       -0.8033833959        0.4445532042
 N          2.8607062976       -0.9260466424       -0.7141327454
 S          2.8459727015        0.2497783398        0.4875587023
 O          2.8028516888       -0.3637996106        1.7975580407
 O          1.8135013342        1.2126102200        0.1925633991
 C          4.4475047884        0.9828751773        0.2103477719
 C          5.5137387153        0.6140081502        1.0084526297
 C          6.7593624230        1.1706350002        0.7630129299
 C          6.9173239868        2.0793028618       -0.2725024295
 C          5.8375115693        2.4408801967       -1.0646414392
 C          4.5894501681        1.8889110805       -0.8238422075
 H          3.7191220381        2.1449430889       -1.4055768922
 H          5.9629990737        3.1498929076       -1.8669423214
 H          7.8873387541        2.5110624151       -0.4616876983
 H          7.5994730229        0.8939998915        1.3792941736
 H          5.3402066166       -0.0896698432        1.8066561455
 H          3.7898154045       -1.2728944649       -0.9060999239
 H          3.0176653922       -3.2570939584       -1.9815196897
 H          1.2095912583       -4.9267196216       -2.1296887745
 H         -0.9461526173       -4.5327952533       -1.0227206742
 H         -1.5237282037       -2.6170799267        1.5713436788
 C         -2.8437616843       -3.1427449420       -0.0315106132
 C         -3.1680322976       -4.4991008669        0.5166028856
 C         -4.0498489462       -3.3311004171        0.8373243481
 H         -5.0274652433       -3.2783947763        0.3823692267
 H         -4.0086283327       -2.9150729780        1.8339837772
 H         -3.5451141827       -5.2516346208       -0.1594583692
 H         -2.5375090503       -4.8849760637        1.3035765134
 H         -3.0096084498       -2.9604275384       -1.0870019866
