  62
        -98.94378470
 C         -1.9028902596       -1.2435656977        0.3526451837
 C         -1.9480887475       -0.1942341099       -0.5974012240
 C         -3.2909651173        0.2980691563       -0.9396394254
 C         -4.3692991117       -0.2731894112       -0.3729686723
 C         -5.7872911298        0.1674164046       -0.5906785423
 C         -6.2100016361        1.2106668419        0.4531665679
 C         -5.2125884845        2.3573502498        0.6194732214
 H         -5.6290035015        3.0461516687        1.3578343166
 H         -4.2826773413        1.9643406340        1.0371124333
 C         -4.9016819924        3.1217432914       -0.6750012930
 H         -4.9226830613        4.1927262103       -0.4623381746
 H         -5.6765158209        2.9242082710       -1.4167150544
 C         -3.5304908200        2.8145797889       -1.2800503925
 H         -3.3273250902        3.5589869823       -2.0546614865
 H         -2.7588517972        2.9230285184       -0.5133165647
 C         -3.3804602698        1.4303450521       -1.9237211771
 H         -4.1942502412        1.2639715220       -2.6323407314
 H         -2.4362863550        1.4232383910       -2.4757692483
 H         -7.1836298401        1.6120261739        0.1661797038
 H         -6.3203655997        0.7103797115        1.4182337975
 H         -6.4365058200       -0.7053588129       -0.5021948485
 H         -5.8851599385        0.5804560585       -1.5926943436
 O         -4.2861477225       -1.2990368947        0.5127756608
 C         -3.0556373951       -1.7996294593        0.9064509294
 O         -3.1183575423       -2.7250049775        1.7419155944
 O         -0.9264991296        0.3084104246       -1.1299249306
 C         -0.5691205935       -1.8192265327        0.7867263095
 C          0.3324260823       -0.7602186190        1.3755016521
 C         -0.2041444526        0.3250274578        2.0608789399
 C          0.6120272289        1.3086845067        2.5880045112
 C          1.9874241613        1.2243309533        2.4612711305
 C          2.5359267575        0.1314299097        1.8066563336
 C          1.7135386948       -0.8504409993        1.2684621350
 H          2.1590993836       -1.6894183436        0.7557635516
 N          3.9423455115        0.0487119090        1.6784731859
 S          4.6199823346        1.0848084014        0.5459837027
 O          6.0414934719        0.8258242824        0.5722350348
 O          4.2048169985        2.4302219182        0.8450008251
 C          3.9312299115        0.5338360682       -1.0035614851
 C          4.6817430499       -0.2935869624       -1.8163861258
 C          4.1039776170       -0.8048907690       -2.9668851718
 C          2.7850273703       -0.5005611205       -3.2710158114
 C          2.0431561397        0.3272282245       -2.4424971420
 C          2.6212578715        0.8543268625       -1.2983599821
 H          2.0624460922        1.4991453344       -0.6397613122
 H          1.0080515771        0.5470747419       -2.6501618770
 H          2.3295912267       -0.9126771898       -4.1581429357
 H          4.6775304829       -1.4463718315       -3.6167634864
 H          5.6992751447       -0.5125726927       -1.5348256852
 H          4.2687846492       -0.8900501246        1.4913621799
 H          2.6388697330        1.9918942592        2.8455670763
 H          0.1728232101        2.1500593726        3.1029573000
 H         -1.2780170167        0.3977775500        2.1675418331
 H         -0.7975811701       -2.5495174491        1.5776543523
 C          0.0777295524       -2.5466576536       -0.3776945898
 C          0.8661331441       -3.8018528492       -0.1563703732
 C         -0.4835976792       -3.8685473836       -0.8037433550
 H         -0.5430988485       -4.0895145245       -1.8586326065
 H         -1.3086745580       -4.2629580405       -0.2279354782
 H          1.7355359762       -3.9799293787       -0.7717496705
 H          0.9558849319       -4.1688449409        0.8553164132
 H          0.4065663181       -1.8677583843       -1.1563172817
