  62
        -98.93729295
 C          2.4548884115        1.1946555062       -0.3127208841
 C          1.9864735318       -0.0889352033        0.0682824109
 C          2.9672681804       -0.9496745800        0.7479938863
 C          4.2061917862       -0.4956246114        1.0030541636
 C          5.3062173425       -1.2522219799        1.6967396359
 C          6.0982815849       -2.1885698670        0.7736262818
 C          5.3556996490       -3.4505831206        0.3323324402
 H          6.0944242161       -4.1137033978       -0.1221572910
 H          4.9563184651       -3.9607768683        1.2094219065
 C          4.2279638625       -3.2020778518       -0.6790370966
 H          4.3533381219       -2.2142367799       -1.1283056333
 H          4.2970970757       -3.9324897834       -1.4882334043
 C          2.8189766075       -3.3050985989       -0.0947279374
 H          2.1010555896       -3.0761660432       -0.8864665779
 H          2.6349071533       -4.3282260666        0.2403504800
 C          2.5516359687       -2.3519197254        1.0775803528
 H          3.0677249271       -2.7009391056        1.9717841457
 H          1.4768312268       -2.3409041275        1.2769804491
 H          6.4147673420       -1.6249412059       -0.1071012475
 H          6.9977759938       -2.4927513522        1.3137912842
 H          4.8903282563       -1.8232200593        2.5274913443
 H          5.9920597983       -0.5033266249        2.0987916713
 O          4.6043961852        0.7585435716        0.6615183416
 C          3.7497204196        1.6231928215       -0.0006854401
 O          4.2527388968        2.7368432964       -0.2514418886
 O          0.8249367497       -0.5223483936       -0.1444388798
 C          1.5735674809        2.2172041997       -1.0139657749
 C          0.2763061048        2.3615738815       -0.2592297687
 C          0.2365584004        3.1481228386        0.8875314957
 C         -0.9228210218        3.2478946749        1.6345609739
 C         -2.0600765348        2.5541660174        1.2605016126
 C         -2.0238045672        1.7552146277        0.1259131229
 C         -0.8669689439        1.6778051700       -0.6384174867
 H         -0.8426883219        1.0430680465       -1.5103147809
 N         -3.1699921834        1.0319169394       -0.2542509751
 S         -4.0333590592        0.2712190223        0.9835132531
 O         -4.9753083802        1.2220823149        1.5235310288
 O         -3.1341883156       -0.3302833406        1.9419258879
 C         -4.9024278945       -0.9881154772        0.0697249911
 C         -6.1905908989       -0.7477065216       -0.3677517514
 C         -6.8424858539       -1.7278866339       -1.0995473923
 C         -6.1984551166       -2.9232990654       -1.3810009756
 C         -4.9042858496       -3.1495907276       -0.9358684778
 C         -4.2463190799       -2.1737154971       -0.2042311472
 H         -3.2426451711       -2.3105475850        0.1676533890
 H         -4.4055258924       -4.0800206611       -1.1552895680
 H         -6.7076605394       -3.6856104593       -1.9492454195
 H         -7.8485544444       -1.5567914130       -1.4468125872
 H         -6.6514159475        0.1938649566       -0.1186281576
 H         -2.9625624556        0.3771447218       -0.9965770313
 H         -2.9656699196        2.6017839991        1.8444881580
 H         -0.9403421884        3.8630981649        2.5219629982
 H          1.1321066377        3.6710593038        1.1953396500
 H          2.1224729687        3.1681491624       -0.9277133552
 C          1.3695944436        1.9682866858       -2.5014530283
 C          2.5257507785        1.5486858589       -3.3586642442
 C          1.3873856760        0.6049202618       -3.1212016055
 H          0.7074808126        0.4102821108       -3.9380248150
 H          1.5477378405       -0.2441878609       -2.4764280514
 H          2.6343631487        1.9945746272       -4.3357114167
 H          3.4643148409        1.3547207092       -2.8593875186
 H          0.6830042412        2.6891828334       -2.9351063317
