  62
        -98.93433813
 C          2.3916915740        1.1881933698        0.0959887818
 C          3.3051400805        0.5495200215        0.9694394891
 C          4.1958589502       -0.4631980249        0.3758342823
 C          4.0722424022       -0.7507439248       -0.9313565391
 C          4.8385570266       -1.7744710819       -1.7226666912
 C          4.0780422954       -3.1106606004       -1.7658390810
 C          4.3601051407       -4.0507596877       -0.5944457265
 H          3.6681166668       -4.8919493494       -0.6783994774
 H          5.3724201396       -4.4490095391       -0.6893557808
 C          4.2093762476       -3.4275480484        0.7958630861
 H          3.3111745361       -2.8074985919        0.8259291493
 H          4.0647413070       -4.2382151310        1.5128626620
 C          5.4307104449       -2.5992291217        1.2221519063
 H          5.7616303867       -2.9254848427        2.2103859005
 H          6.2547188353       -2.8014540185        0.5382725405
 C          5.1950284608       -1.0845438103        1.3134263296
 H          6.1530773869       -0.5670131713        1.1951550580
 H          4.8278674703       -0.8335641812        2.3138361454
 H          3.0090977723       -2.8860786119       -1.8095022475
 H          4.3394893836       -3.6329463559       -2.6882544165
 H          5.8389433960       -1.9033479134       -1.3203955409
 H          4.9153954864       -1.3857414329       -2.7402024840
 O          3.1439543466       -0.1520303134       -1.7255218631
 C          2.2776180224        0.8187332373       -1.2450916278
 O          1.4804323254        1.2489190701       -2.0972745391
 O          3.3672850750        0.8070992646        2.2027893465
 C          1.4706101526        2.2410820956        0.6847073899
 C          0.0437326822        1.9834587097        0.2679415340
 C         -0.7469318665        2.9106514471       -0.3964214029
 C         -2.0528006652        2.6014705731       -0.7361112310
 C         -2.5968341154        1.3697375343       -0.4248506304
 C         -1.8164559252        0.4346412243        0.2430735303
 C         -0.5127024940        0.7508401556        0.5901704097
 H          0.0956438936        0.0209781009        1.1122477802
 N         -2.3568324005       -0.8277434966        0.5489339755
 S         -3.8255216716       -0.8797753537        1.3618698174
 O         -4.0040490202        0.2804401027        2.2042096304
 O         -3.8426834812       -2.1643869031        2.0275474148
 C         -5.0409731898       -0.8839618702        0.0614204849
 C         -6.0448660687        0.0645525940        0.0550010074
 C         -6.9870960657        0.0356042796       -0.9614128381
 C         -6.9093681753       -0.9363157135       -1.9470731608
 C         -5.8961799852       -1.8833463738       -1.9246070838
 C         -4.9520321475       -1.8610469859       -0.9105950110
 H         -4.1513797230       -2.5797239774       -0.8553985351
 H         -5.8385119382       -2.6373275770       -2.6931002374
 H         -7.6426038203       -0.9562042227       -2.7377989471
 H         -7.7755275510        0.7706835796       -0.9807709909
 H         -6.0609643096        0.8050015532        0.8387114317
 H         -1.6952045621       -1.4595540512        0.9762421698
 H         -3.6105720656        1.1240082125       -0.6958320278
 H         -2.6537480465        3.3298495809       -1.2588379494
 H         -0.3358083549        3.8687844787       -0.6676834275
 H          1.5329675241        2.0769482431        1.7743503832
 C          1.9228991610        3.6733113708        0.4420867390
 C          3.3685066478        4.0008077143        0.2199929940
 C          2.3853321383        4.1544257072       -0.8994478896
 H          2.1130805715        5.1537997116       -1.2061982840
 H          2.4047602705        3.4395560431       -1.7066210467
 H          3.7690541321        4.8905657076        0.6822048003
 H          4.0680670337        3.1784447618        0.1777830797
 H          1.3609271868        4.3800175747        1.0452882111
