  62
        -98.93812424
 C          1.5664385399        1.1035368895        0.1680353711
 C          2.6746937396        0.8273870588        1.0144033013
 C          3.4274225990       -0.3978009315        0.7309683513
 C          3.0221765888       -1.2113136512       -0.2601318188
 C          3.6519854582       -2.5218698915       -0.6464415688
 C          4.8550587485       -2.3819634821       -1.5891378785
 C          6.1259021186       -1.8272854128       -0.9444946882
 H          6.3584853781       -2.4026619030       -0.0478867282
 H          6.9405424687       -1.9869524832       -1.6537236681
 C          6.0599793293       -0.3332917128       -0.5974047881
 H          5.2342659097        0.1311833877       -1.1415117483
 H          6.9771940896        0.1584972468       -0.9293551279
 C          5.9001426192       -0.0349683028        0.8935433619
 H          5.8270474397        1.0482974472        1.0201375319
 H          6.7864137489       -0.3769655233        1.4326195520
 C          4.6612771987       -0.6727252722        1.5358453916
 H          4.8091790581       -1.7461761823        1.6517614015
 H          4.5200907087       -0.2290885522        2.5243348416
 H          5.0777845480       -3.3763871322       -1.9828695285
 H          4.5677734290       -1.7484031619       -2.4315590285
 H          3.9531459978       -3.0623914518        0.2513038013
 H          2.8816020680       -3.1010395911       -1.1602171090
 O          1.9435312591       -0.9287599506       -1.0328527590
 C          1.2118750597        0.2436173197       -0.8724761091
 O          0.2983658299        0.3617901303       -1.7091784592
 O          3.0162529798        1.5741886586        1.9696271814
 C          0.7738395405        2.3679099999        0.4859731410
 C         -0.6547871398        1.9952256906        0.7889532307
 C         -1.0049973002        1.7607344607        2.1180478006
 C         -2.2655650505        1.3066982213        2.4585912303
 C         -3.2090823504        1.0516737018        1.4787014501
 C         -2.8703321000        1.2749856017        0.1520589702
 C         -1.6157080997        1.7654724211       -0.1841767595
 H         -1.3837062694        1.9055730111       -1.2252156795
 N         -3.7939716700        0.9614184423       -0.8633948800
 S         -4.5203033208       -0.5430289673       -0.7542215203
 O         -4.7943093407       -0.9413105071       -2.1176780004
 O         -5.6747235809       -0.4500819868        0.1069203195
 C         -3.3187006015       -1.6372274580       -0.0102611601
 C         -2.0436544514       -1.6977838786       -0.5364772899
 C         -1.1200175719       -2.5499021791        0.0474069803
 C         -1.4825995726       -3.3286415690        1.1349756201
 C         -2.7692464026       -3.2614793284        1.6467596499
 C         -3.6959496921       -2.4068746179        1.0721186798
 H         -4.7034906721       -2.3153729074        1.4443956496
 H         -3.0503899931       -3.8677967683        2.4927011598
 H         -0.7568632730       -3.9880294594        1.5845707402
 H         -0.1180861919       -2.5869418396       -0.3513263595
 H         -1.7599637009       -1.0797581587       -1.3740278698
 H         -3.4224784197        1.1024710622       -1.7923925199
 H         -4.1909072806        0.6760336823        1.7179162499
 H         -2.5130739207        1.1365098513        3.4950838702
 H         -0.2656743002        1.9241370502        2.8893165308
 H          1.2120473805        2.7082010296        1.4366843511
 C          1.0490512013        3.4997011498       -0.4975552289
 C          0.6664827416        3.5184621401       -1.9466114489
 C         -0.0016138881        4.4521117104       -0.9833628690
 H          0.2459048824        5.5018819002       -1.0359638189
 H         -1.0262422083        4.2566129909       -0.7076622692
 H          1.3833685019        3.9315682598       -2.6426977188
 H          0.1228190412        2.6811776204       -2.3510622691
 H          2.0205224614        3.9390228593       -0.2847748486
