  62
        -98.94455596
 C         -1.9769740395        1.3101897585       -0.3876815676
 C         -2.7324292182        0.8837148339        0.7315818166
 C         -3.9438856909        0.1073830731        0.4266942761
 C         -4.2504462944       -0.1651681114       -0.8545316966
 C         -5.4247632253       -0.9865063049       -1.3003508724
 C         -5.0513120769       -2.4700268567       -1.4274712253
 C         -4.3191541017       -3.0297320895       -0.2076043351
 H         -4.1334448884       -4.0892858624       -0.3972905229
 H         -3.3437456837       -2.5446009144       -0.1213525576
 C         -5.0800693075       -2.8731289531        1.1164213265
 H         -5.0201548790       -3.8140924726        1.6673808923
 H         -6.1350187197       -2.6812993603        0.9169037469
 C         -4.5316872292       -1.7819726056        2.0379019592
 H         -3.4543083970       -1.9166420945        2.1652531351
 H         -4.9944005029       -1.9038222879        3.0208824560
 C         -4.7871732657       -0.3380016049        1.5880153784
 H         -5.8482830442       -0.2031363397        1.3687038545
 H         -4.5207292956        0.3196725341        2.4205448839
 H         -5.9645663816       -3.0424629530       -1.5996357564
 H         -4.4050809503       -2.5917357458       -2.2999979500
 H         -6.2369963927       -0.8658455313       -0.5862904793
 H         -5.7518038537       -0.6189246566       -2.2744896981
 O         -3.4859467128        0.2400396904       -1.9010786564
 C         -2.3288242246        0.9724146459       -1.6943804773
 O         -1.7050894276        1.2542994846       -2.7389298770
 H          0.2559598804       -0.1845382015       -1.0323438945
 C          0.7002462078        0.0863010530       -0.0820194492
 C          0.3177540448        1.2783277063        0.5231921533
 C          0.9024043700        1.6250958272        1.7328321693
 C          1.8227861780        0.7811871604        2.3325518887
 C          2.1896548782       -0.4101808317        1.7357325920
 C          1.6258642346       -0.7558578647        0.5129500296
 N          2.0180987205       -1.9494150071       -0.1176277743
 S          3.6590463582       -2.2793360169       -0.1835455307
 O          3.8396794268       -3.0740270746       -1.3782944819
 O          4.0770752554       -2.8976514049        1.0500249408
 C          4.4512345329       -0.6895149109       -0.3579214702
 C          5.3352081526       -0.2515098482        0.6069526883
 C          5.9115700070        1.0011182852        0.4692963691
 C          5.5920638925        1.7916119142       -0.6234156736
 C          4.7053946749        1.3355546736       -1.5870908818
 C          4.1278987898        0.0832705185       -1.4557651206
 H          3.4373862612       -0.2997294168       -2.1905004600
 H          4.4575798479        1.9510262405       -2.4371112715
 H          6.0359693421        2.7690663589       -0.7269937939
 H          6.6028610675        1.3574320362        1.2157675734
 H          5.5518885169       -0.8970951413        1.4423492855
 H          1.5784098957       -2.1027095145       -1.0130503534
 H          2.8950784247       -1.0826393084        2.1963907867
 H          2.2592830878        1.0555764678        3.2805391270
 H          0.6285843083        2.5486969187        2.2143670450
 C         -0.7082020298        2.1237392109       -0.1923306710
 H         -0.3261970193        2.3292512531       -1.2026239915
 C         -1.0077718668        3.4404182738        0.4904687112
 C         -0.0736347733        4.5985778488        0.3143773232
 C         -1.4181330102        4.6127682923       -0.3470681116
 H         -2.1767844812        5.2788930574        0.0355875838
 H         -1.4663046670        4.4678540355       -1.4167953765
 H          0.7952150019        4.4482888355       -0.3081980970
 H          0.0915249752        5.2604062029        1.1508037898
 H         -1.4983508334        3.3162094853        1.4482343955
 O         -2.4200218621        1.1379095882        1.9231044728
