  62
        -98.94642202
 C          1.2181640221        1.2305283340        0.0387707621
 C          1.6799720866        0.3848127194        1.0767149296
 C          2.4836567092       -0.7677451836        0.6578670504
 C          2.6877177433       -0.9953057992       -0.6522211806
 C          3.4912491684       -2.1237940175       -1.2403330326
 C          5.0027347437       -1.8573389567       -1.2799324873
 C          5.7138402848       -1.9171907536        0.0725719659
 H          5.4620607640       -2.8519772847        0.5745168382
 H          6.7864032327       -1.9368297040       -0.1308024398
 C          5.4109905475       -0.7331996262        1.0015200929
 H          6.3423973214       -0.3645774238        1.4371973247
 H          4.9838574050        0.0868530935        0.4198076544
 C          4.4683289218       -1.0610859852        2.1594193325
 H          4.2925095832       -0.1445759723        2.7284251166
 H          4.9435006525       -1.7842587628        2.8261174048
 C          3.1068609363       -1.6180303191        1.7235176032
 H          2.4401694657       -1.6097935861        2.5894711289
 H          3.2173371584       -2.6453282635        1.3766894806
 H          5.1736007955       -0.8802953703       -1.7375639911
 H          5.4484788032       -2.6117414090       -1.9323464538
 H          3.2993081714       -3.0441164911       -0.6880385169
 H          3.1445956105       -2.2534733672       -2.2675221613
 O          2.1502283224       -0.2108996753       -1.6212639824
 C          1.4056815556        0.9173976482       -1.3084396426
 O          0.9806723255        1.5339065280       -2.3016756637
 O          1.4327807789        0.5851799038        2.2971709123
 C          0.4249286090        2.4702907197        0.4222391013
 C         -1.0284609867        2.2023934828        0.1234026673
 C         -1.7213195939        2.7714769224       -0.9360574801
 C         -3.0365028178        2.4140041251       -1.1834030931
 C         -3.6858012185        1.4911995753       -0.3832976338
 C         -2.9999166644        0.9208677324        0.6813575918
 C         -1.6847759695        1.2769989378        0.9271296564
 H         -1.1458257235        0.8228095029        1.7488948629
 N         -3.6453906273       -0.0449656967        1.4889404997
 S         -4.0320630563       -1.4622282914        0.6815839893
 O         -5.1600831946       -1.2171026350       -0.1796677078
 O         -4.2190645326       -2.4611904765        1.7090303873
 C         -2.5849476913       -1.8292321267       -0.2949006949
 C         -2.5444446705       -1.4462494609       -1.6199801900
 C         -1.3913777712       -1.6843378506       -2.3499020013
 C         -0.3050094209       -2.2954777394       -1.7446114909
 C         -0.3572391210       -2.6651848468       -0.4095787007
 C         -1.5060059397       -2.4258819022        0.3260108649
 H         -1.5852363739       -2.7067649330        1.3643073789
 H          0.4940958064       -3.1305207617        0.0608988653
 H          0.5897286887       -2.4795712405       -2.3174686319
 H         -1.3381429059       -1.3863087490       -3.3846031342
 H         -3.4121630867       -0.9789475741       -2.0557621360
 H         -3.1133039629       -0.2733229077        2.3178010279
 H         -4.7038688334        1.1911096413       -0.5721974902
 H         -3.5625042730        2.8596864405       -2.0139464066
 H         -1.2262852195        3.4804337211       -1.5785096760
 H          0.5312162871        2.5548501759        1.5130387534
 C          0.9699681920        3.7276912651       -0.2176279892
 C          0.5798946276        5.0621656554        0.3418274636
 C          1.9755531994        4.5500182669        0.5289783729
 H          2.7755690838        5.0151404055       -0.0272289829
 H          2.2684455028        4.2125264880        1.5126331352
 H          0.4207255265        5.8820748848       -0.3415742042
 H         -0.0766365297        5.0705661360        1.1988232323
 H          1.0979590101        3.6428471700       -1.2894378603
