  62
        -98.94835477
 C          0.8481405093        1.2189398469        0.5331524353
 C          1.2478366561        0.5524468020       -0.6497682452
 C          2.1801011962       -0.5686257144       -0.4622285196
 C          2.4766777764       -0.9755192899        0.7847971568
 C          3.4591833641       -2.0594714158        1.1212610510
 C          4.8611342701       -1.4766338638        1.3514617148
 C          5.3187520470       -0.5156037113        0.2536365537
 H          4.6840923041        0.3735127336        0.2716574311
 H          6.3303697522       -0.1919857835        0.5084900518
 C          5.3146317593       -1.1137678929       -1.1603411023
 H          6.2436168493       -0.8315618255       -1.6601725876
 H          5.2972748533       -2.2024892309       -1.1010265483
 C          4.1660905686       -0.6353075601       -2.0511493889
 H          4.1217838817        0.4564893815       -2.0354842738
 H          4.3847813516       -0.9392878548       -3.0780310367
 C          2.7775192351       -1.1831736352       -1.6958408171
 H          2.0960922723       -0.9315930077       -2.5130451068
 H          2.8286123085       -2.2686904286       -1.6059942004
 H          4.8595511038       -0.9349273720        2.3003178302
 H          5.5698546707       -2.3027578786        1.4339511030
 H          3.1282054433       -2.5567405599        2.0348087434
 H          3.4896217752       -2.7846379902        0.3105458721
 O          1.9489665626       -0.4016216061        1.8981008826
 C          1.1722562840        0.7419799369        1.8024648861
 O          0.8335705629        1.2293101209        2.9011919019
 O          0.8689854782        0.8887076039       -1.8007047709
 C          0.0303596586        2.4945057202        0.4431801431
 C         -1.2894695919        2.2316912309       -0.2382007856
 C         -1.7707599807        2.9879590548       -1.2987899979
 C         -3.0028925388        2.7003070846       -1.8597523427
 C         -3.7779324336        1.6632076649       -1.3757284598
 C         -3.3091974097        0.9075227773       -0.3060274946
 C         -2.0731626909        1.1930930560        0.2504540004
 H         -1.7190578361        0.6090220158        1.0883341487
 N         -4.0859520168       -0.1310736339        0.2265022559
 S         -3.3817542489       -1.4594049668        0.9360693743
 O         -4.4288941274       -2.4606815408        0.9219850205
 O         -2.8609023523       -1.1263498953        2.2386394424
 C         -2.0660374973       -1.9977401270       -0.1410718221
 C         -0.9154229049       -2.5030076826        0.4273378061
 C          0.0625450307       -3.0373814807       -0.3953495668
 C         -0.1206883111       -3.0449691915       -1.7687084146
 C         -1.2729927556       -2.5156110148       -2.3266676049
 C         -2.2614674377       -1.9957623520       -1.5076759651
 H         -3.1730478661       -1.5945660699       -1.9191230907
 H         -1.4068189331       -2.5117110835       -3.3962840244
 H          0.6385769002       -3.4653755716       -2.4085228238
 H          0.9581202859       -3.4472923223        0.0426379580
 H         -0.8055997999       -2.4650270586        1.5003668728
 H         -4.9219074387       -0.3629064975       -0.2886583360
 H         -4.7398253279        1.4413308971       -1.8116804490
 H         -3.3635926218        3.2915687035       -2.6874426176
 H         -1.1811784051        3.8004509202       -1.6892951444
 H         -0.1848223871        2.7889302171        1.4813269111
 C          0.8500901332        3.5859726717       -0.2143796292
 C          0.5906616491        5.0249605215        0.1121090005
 C          1.8315110521        4.3535990433        0.6173230478
 H          2.7808816950        4.6233317832        0.1793381786
 H          1.8908495628        4.1068954368        1.6678754573
 H          0.6912840501        5.7594323101       -0.6726049450
 H         -0.1918749558        5.2425735499        0.8232835137
 H          1.1442315102        3.3341069759       -1.2267143692
