  62
        -98.93616397
 C         -2.4236630497       -0.8477987804        0.1878306811
 C         -3.6679651597       -0.9921612599        0.8531278911
 C         -4.8636532397       -0.6184427203        0.0871152609
 C         -4.7190684296       -0.1463553310       -1.1643243994
 C         -5.8451834296        0.3234983385       -2.0380608697
 C         -6.1001031695        1.8265136986       -1.8579621605
 C         -6.2135776296        2.2641014695       -0.3976121208
 H         -5.2469134496        2.1249213397        0.0922231893
 H         -6.4222770395        3.3361810895       -0.3947883114
 C         -7.2979553796        1.5299382600        0.4034887496
 H         -7.8556609596        2.2624945403        0.9907733092
 H         -8.0048831596        1.0555366496       -0.2781382102
 C         -6.7632578597        0.4859759505        1.3855348502
 H         -7.5821399997        0.1896773109        2.0465054503
 H         -5.9858286097        0.9339663608        2.0097609800
 C         -6.1979129697       -0.7934839699        0.7562988809
 H         -6.0367534198       -1.5155577094        1.5622091413
 H         -6.9260466497       -1.2132072403        0.0591475611
 H         -7.0170814295        2.0870100184       -2.3897060407
 H         -5.2737187195        2.3751843183       -2.3157734408
 H         -6.7444307596       -0.2395709113       -1.7954738294
 H         -5.5765845495        0.1321781879       -3.0783070996
 O         -3.5104714296        0.0018311986       -1.7617852094
 C         -2.3310582896       -0.3328400811       -1.1060655392
 O         -1.3059337596       -0.1260613815       -1.7805549693
 O         -3.7722885398       -1.4126489893        2.0365476414
 C         -1.1709666197       -1.2169266600        0.9617401313
 C         -0.1378435197       -0.1246715901        0.8392417808
 C         -0.4620790997        1.1499336702        1.2973609300
 C          0.4459526304        2.1868598401        1.2105658695
 C          1.7025529304        1.9758583297        0.6708615596
 C          2.0397071304        0.7085025195        0.2183000704
 C          1.1249683203       -0.3343139604        0.3099749709
 H          1.3962118303       -1.3087038207       -0.0654081485
 N          3.3113302104        0.4906508791       -0.3399824995
 S          4.6282799704        1.1867972695        0.4559731202
 O          4.4841158903        1.0229265803        1.8852943903
 O          4.7807350504        2.5433933792       -0.0078379906
 C          5.9721634704        0.1851841691       -0.1501977092
 C          6.5371176304        0.4922142684       -1.3734876194
 C          7.5661624204       -0.3023576319       -1.8534294889
 C          8.0097966903       -1.3844008815       -1.1075663383
 C          7.4335969503       -1.6792585508        0.1189442519
 C          6.4034187203       -0.8894284105        0.6045126214
 H          5.9330334803       -1.0750345299        1.5568617215
 H          7.7828185402       -2.5190498605        0.6978952524
 H          8.8118087903       -2.0001929417       -1.4829448879
 H          8.0187086204       -0.0750861325       -2.8051441690
 H          6.1662235105        1.3475701681       -1.9136768199
 H          3.4755205203       -0.4826742810       -0.5566904289
 H          2.4244387604        2.7737410697        0.5982409292
 H          0.1759821904        3.1704966503        1.5657990189
 H         -1.4443976997        1.3187991105        1.7185857899
 H         -1.5028949398       -1.2440659294        2.0136421713
 C         -0.6291132698       -2.6041211902        0.6501998521
 C         -1.5337464898       -3.6957846504        0.1642791627
 C         -0.4953143398       -3.1218423310       -0.7498386476
 H          0.3639456802       -3.7309009511       -0.9911557572
 H         -0.8131920197       -2.4763987014       -1.5533164279
 H         -1.3871876499       -4.6929752602        0.5513378333
 H         -2.5688993698       -3.4451273005       -0.0159768775
 H          0.1421267502       -2.9014481298        1.3548011923
