  62
        -98.94124022
 C          1.6256063713        0.3162798550        0.2833561598
 C          2.7655766531        1.0099433792       -0.1908612287
 C          3.8474930104        0.1712287298       -0.7318085322
 C          3.6915958191       -1.1630351524       -0.7887285490
 C          4.7339146877       -2.1316317817       -1.2655097249
 C          5.6127873745       -2.6172467152       -0.1041322193
 C          6.1550559705       -1.4899263477        0.7746038904
 H          5.3216379348       -1.0068169395        1.2897549711
 H          6.7834956060       -1.9487841326        1.5410375272
 C          6.9654071315       -0.4283513883        0.0178214753
 H          7.8695418753       -0.2053753498        0.5884018867
 H          7.2817986619       -0.8227583913       -0.9485219446
 C          6.2328750722        0.8981814091       -0.1919587460
 H          6.9607780209        1.6373162495       -0.5372215410
 H          5.8355304048        1.2522064873        0.7626621722
 C          5.0870742444        0.8732921832       -1.2113531610
 H          4.7902207722        1.9086219081       -1.4024614157
 H          5.4382149795        0.4386345277       -2.1493182683
 H          6.4445135331       -3.1909848111       -0.5170789514
 H          5.0183121488       -3.2844408109        0.5242220795
 H          5.3490979526       -1.6520888533       -2.0243497265
 H          4.2277286435       -2.9901336876       -1.7099403732
 O          2.5655784482       -1.7914858299       -0.3657400841
 C          1.5186682247       -1.0753781957        0.1867933976
 O          0.5576257162       -1.7799189624        0.5545205372
 O          2.9008934460        2.2620800367       -0.1728787322
 C          0.4254799129        1.0101459091        0.9084165703
 C         -0.4999379032        1.5588972406       -0.1510947000
 C         -0.1229758247        2.6131133126       -0.9763501447
 C         -0.9997893755        3.1004413189       -1.9277730470
 C         -2.2681352250        2.5633455908       -2.0615151124
 C         -2.6523711309        1.5058562519       -1.2453061249
 C         -1.7621299898        1.0043783506       -0.3062796640
 H         -2.0576967067        0.1728709019        0.3149869124
 N         -3.9221701995        0.9285063854       -1.3724822258
 S         -4.7325005802        0.3205575605       -0.0428042309
 O         -6.1221690573        0.3094790191       -0.4477113007
 O         -4.4276120938        1.0656659429        1.1560973102
 C         -4.1613203721       -1.3583355979        0.0986407019
 C         -3.6703340580       -1.8192134999        1.3032690582
 C         -3.2496852209       -3.1360663850        1.3968360931
 C         -3.3293806950       -3.9650485594        0.2892408694
 C         -3.8291043654       -3.4882227417       -0.9131731920
 C         -4.2510534414       -2.1727174800       -1.0125994061
 H         -4.6478928606       -1.7670601373       -1.9283328677
 H         -3.8880112902       -4.1374587577       -1.7720222161
 H         -2.9972198438       -4.9884344692        0.3646543723
 H         -2.8560047451       -3.5070806497        2.3294658571
 H         -3.6201304057       -1.1399185235        2.1401563961
 H         -4.5425076335        1.3905812478       -2.0207556996
 H         -2.9559010732        2.9554335756       -2.7954158332
 H         -0.6968520048        3.9167196850       -2.5662231874
 H          0.8652487661        3.0336844400       -0.8736362559
 H         -0.1227218955        0.2235694360        1.4448443842
 C          0.8019096126        2.0889296923        1.9056921595
 C         -0.2361548488        2.5584937378        2.8783761938
 C          0.9225012315        1.7362020257        3.3559495714
 H          1.6908040754        2.2186955284        3.9414670213
 H          0.7374126920        0.7100837746        3.6395434726
 H         -0.2634851684        3.6061915914        3.1362453163
 H         -1.2109682096        2.0945725106        2.8334790830
 H          1.4927861865        2.8220778547        1.5118527922
