  62
        -98.94068116
 C          1.5129356964        1.1999473576       -0.0134139204
 C          2.5961218035        0.9222554607        0.8560011683
 C          3.3471174150       -0.3198556682        0.6072798489
 C          2.9654702210       -1.1314647409       -0.3963357973
 C          3.4928926002       -2.4798731424       -0.8404621662
 C          4.8628040138       -2.9728085120       -0.3810120384
 C          6.0463786452       -2.1635495020       -0.9090306408
 H          6.1246531185       -2.3227880764       -1.9875711304
 H          6.9573233929       -2.5533011251       -0.4493316437
 C          5.9750738272       -0.6573900353       -0.6691373781
 H          5.1326708241       -0.2367290596       -1.2221477748
 H          6.8839158856       -0.2103753497       -1.0813019715
 C          5.8708608712       -0.2317787037        0.7944462833
 H          6.0000999621        0.8533004447        0.8301819796
 H          6.6835137051       -0.6829983327        1.3669293140
 C          4.5376199057       -0.5619472600        1.4891901062
 H          4.4276785507        0.1097443045        2.3453838562
 H          4.5316338438       -1.5799174335        1.8713381705
 H          4.9676643167       -3.9937265682       -0.7584223622
 H          4.8988217791       -3.0331121143        0.7026888362
 H          3.4685839984       -2.4625690551       -1.9347401585
 H          2.7425247464       -3.2138737133       -0.5260483790
 O          1.9028057014       -0.8300764994       -1.1973640625
 C          1.1638780382        0.3329507917       -1.0465868763
 O          0.2516185499        0.4591622403       -1.8854712320
 O          2.9205061533        1.6792422925        1.8088115206
 C          0.6912186803        2.4535560765        0.2420014577
 C         -0.6689553419        1.9991309868        0.7077631386
 C         -0.8539178676        1.6452103288        2.0416406913
 C         -2.0563516406        1.1169457665        2.4731526624
 C         -3.0907893131        0.9029560703        1.5782640066
 C         -2.9090490757        1.2412878792        0.2442410218
 C         -1.7169419815        1.8118992653       -0.1797371338
 H         -1.5923151904        2.0625194506       -1.2208038059
 N         -3.9289072837        0.9642995821       -0.6850837267
 S         -4.5973183978       -0.5691046028       -0.6099492236
 O         -4.9895449295       -0.8875769674       -1.9655767911
 O         -5.6662192778       -0.5731305047        0.3596501551
 C         -3.2993552810       -1.6668915645       -0.0574872203
 C         -2.0816974560       -1.6562175611       -0.7080413608
 C         -1.0833742236       -2.5126307130       -0.2719876821
 C         -1.3163059408       -3.3645941422        0.7960515074
 C         -2.5472071491       -3.3685443920        1.4339188542
 C         -3.5478901042       -2.5113892061        1.0062231835
 H         -4.5158996885       -2.4746441582        1.4791969839
 H         -2.7273239916       -4.0324968500        2.2640125062
 H         -0.5339269991       -4.0267887142        1.1324494060
 H         -0.1260851327       -2.4930252363       -0.7695576725
 H         -1.8974671223       -0.9805791234       -1.5285764473
 H         -3.6720671963        1.1906304951       -1.6354946360
 H         -4.0286968713        0.4716509362        1.8893377468
 H         -2.1870767894        0.8547849841        3.5118303092
 H         -0.0336849454        1.7745577731        2.7335882196
 H          1.1903467163        2.9669093299        1.0740933821
 C          0.6594530291        3.3793952615       -0.9551317580
 C          0.1716128813        4.7855407218       -0.7789047720
 C          1.6262639773        4.5217935562       -1.0230371692
 H          2.0450437433        4.7853327887       -1.9828090590
 H          2.3139389542        4.6446158885       -0.1992246639
 H         -0.4102525423        5.2339385221       -1.5696816879
 H         -0.1304024036        5.0857506114        0.2130500861
 H          0.4287682071        2.8759013253       -1.8860435965
