  62
        -98.93914011
 C         -2.3465228439       -1.2576435482       -0.0440368963
 C         -3.0172220968       -0.4007376675        0.8564520497
 C         -3.6085647203        0.8298708113        0.2972113599
 C         -3.4585543546        1.0771064888       -1.0176014589
 C         -3.9159807348        2.2850065885       -1.7900972278
 C         -3.0064958532        3.5042456546       -1.5600996864
 C         -2.5788605748        3.7265250073       -0.1110864034
 H         -2.0700609202        2.8308396238        0.2528747530
 H         -1.8410188812        4.5337156957       -0.1027411302
 C         -3.7019149645        4.1075240707        0.8512312253
 H         -3.2443438239        4.2887540258        1.8273511517
 H         -4.1527708359        5.0446667311        0.5170863366
 C         -4.8146540561        3.0729794057        1.0287636869
 H         -5.4817253550        3.0696390016        0.1712607049
 H         -5.4142506257        3.3864653791        1.8883912618
 C         -4.3334242704        1.6571283096        1.3318690195
 H         -3.6728470668        1.6851615800        2.2061176433
 H         -5.1973352857        1.0564422189        1.6418103847
 H         -2.0976237160        3.3629574202       -2.1507877285
 H         -3.5174841153        4.3938576633       -1.9318530092
 H         -3.8743018693        2.0166049596       -2.8478450805
 H         -4.9484822416        2.5160586434       -1.5458391540
 O         -2.7845540515        0.2310890139       -1.8469303394
 C         -2.2011317724       -0.9375243204       -1.3937889000
 O         -1.6055656358       -1.5900061227       -2.2711060553
 O         -3.1089096883       -0.6417915113        2.0925600562
 C         -1.6798745699       -2.5133035440        0.4932517009
 C         -0.1866312540       -2.3405769724        0.3615736862
 C          0.6367729307       -3.1904101426       -0.3631167002
 C          1.9879171165       -2.9138248419       -0.4904894640
 C          2.5447121592       -1.7940907912        0.0996803940
 C          1.7305987108       -0.9435739317        0.8368570955
 C          0.3822871046       -1.2262204085        0.9681865384
 H         -0.2530174946       -0.5567405657        1.5363094857
 N          2.2894212566        0.2108343565        1.4325986647
 S          2.7976169631        1.3876500689        0.3369030892
 O          2.7842238854        2.6307151702        1.0779489326
 O          2.0105922955        1.3545414785       -0.8756930250
 C          4.4827124997        0.9309945439       -0.0066719007
 C          5.3890125361        0.9608949119        1.0354669093
 C          6.7042201820        0.6018742476        0.7878973665
 C          7.0882905743        0.2233712805       -0.4901820597
 C          6.1666023290        0.2015390301       -1.5259055283
 C          4.8486517478        0.5581841317       -1.2848671723
 H          4.0946078170        0.5503393291       -2.0559052579
 H          6.4667955064       -0.0928750542       -2.5187306300
 H          8.1123803822       -0.0561628506       -0.6808353175
 H          7.4239931083        0.6177460430        1.5902912386
 H          5.0477450578        1.2667533415        2.0102670180
 H          1.6640489349        0.6413184033        2.1007290177
 H          3.5945125711       -1.5730354423       -0.0045155785
 H          2.6151822219       -3.5785667142       -1.0644500405
 H          0.2184712241       -4.0596653468       -0.8428920153
 H         -1.9292436014       -2.5408812796        1.5641070666
 C         -2.2226911146       -3.7594455845       -0.1694698310
 C         -2.1138867246       -5.0818037735        0.5274983159
 C         -3.4467611177       -4.4094699146        0.3999177542
 H         -4.1732605298       -4.8247296673       -0.2821623178
 H         -3.8825572298       -3.9624976426        1.2816112412
 H         -1.9267791743       -5.9635206314       -0.0661381538
 H         -1.6445319430       -5.0958520862        1.4994219916
 H         -2.1255921952       -3.7368461767       -1.2485139538
