  62
        -98.94758701
 C         -2.5256387837       -0.2926751385        0.0170179192
 C         -2.2216566513       -1.3074508705       -0.9202118484
 C         -1.5774311109       -2.5117025963       -0.3823262744
 C         -1.3354837705       -2.5924548496        0.9387461105
 C         -0.6846414595       -3.7607122054        1.6217282815
 C          0.8330857467       -3.5781089608        1.7460573877
 C          1.5256326383       -3.1927621716        0.4386325885
 H          2.5997610974       -3.1646417097        0.6390757225
 H          1.2326373707       -2.1761217128        0.1655474838
 C          1.2521629422       -4.1360350281       -0.7406142484
 H          0.8950209245       -5.0991872974       -0.3728992986
 H          2.1930711853       -4.3143561707       -1.2652108192
 C          0.2668392197       -3.5850118497       -1.7736152783
 H          0.3527796798       -4.1864979832       -2.6829061631
 H          0.5492432097       -2.5592892923       -2.0282020462
 C         -1.2101416122       -3.5943547217       -1.3572580988
 H         -1.4768763929       -4.5780802476       -0.9641917269
 H         -1.8112933976       -3.4062439135       -2.2518752419
 H          1.2599135347       -4.5083683021        2.1270863818
 H          1.0278246125       -2.7854478612        2.4722447436
 H         -0.9070579098       -4.6674726089        1.0618879874
 H         -1.1113663889       -3.8481476494        2.6228188309
 O         -1.6549241935       -1.6036568559        1.8122249028
 C         -2.2067397585       -0.4118607116        1.3697636872
 O         -2.3892931049        0.4341609925        2.2669612339
 O         -2.4855580903       -1.2114823897       -2.1512349764
 C         -3.0957090638        1.0232644397       -0.4846334406
 C         -2.0729968273        2.1087060379       -0.2492250549
 C         -2.3664554022        3.3586702405        0.2793430272
 C         -1.3513286418        4.2702727521        0.5181271163
 C         -0.0305875006        3.9508825633        0.2608882909
 C          0.2695447763        2.7084832787       -0.2864529008
 C         -0.7523023697        1.8184052437       -0.5646548627
 H         -0.5071019760        0.8594965935       -0.9976229590
 N          1.5933943864        2.3208945064       -0.5669164142
 S          1.9588317167        0.6931680808       -0.2661371273
 O          1.6273141436       -0.0764000771       -1.4393110121
 O          1.3602469864        0.2741636282        0.9800687405
 C          3.7321221885        0.7807719561       -0.1002273868
 C          4.2879355462        0.8803472783        1.1611429773
 C          5.6653271658        0.9797137382        1.2811220384
 C          6.4584298157        0.9814955915        0.1434602337
 C          5.8860755376        0.8797821032       -1.1159674564
 C          4.5097305869        0.7784434542       -1.2427312653
 H          4.0189737177        0.6865236188       -2.1975136927
 H          6.5059626250        0.8780456146       -1.9978361043
 H          7.5298090523        1.0596066087        0.2394598738
 H          6.1125693321        1.0547183710        2.2592074068
 H          3.6306361036        0.8647013176        2.0160951711
 H          2.2768173617        2.9362181939       -0.1459832694
 H          0.7604903251        4.6512037534        0.4822200954
 H         -1.5913473169        5.2368627728        0.9347327078
 H         -3.3858581725        3.6134981792        0.5192709919
 H         -3.2178458768        0.8936858618       -1.5709817535
 C         -4.4471285341        1.3139006445        0.1305519064
 C         -5.4571777647        2.1291591715       -0.6189678410
 C         -5.6623638810        0.6549418577       -0.4477904509
 H         -6.4329696204        0.3135392391        0.2267225862
 H         -5.5161895223        0.0131051782       -1.3044531242
 H         -6.0925669639        2.8010900038       -0.0620955856
 H         -5.1802183695        2.4904066098       -1.5978202303
 H         -4.3982746147        1.4173442748        1.2085138313
