  62
        -98.93881291
 C          2.5784674792        0.1174339899       -0.4602537486
 C          2.2710231788        0.7911746393        0.7446477416
 C          1.7721889884        2.1714398592        0.6170560621
 C          1.6276463585        2.7094703997       -0.6059255177
 C          1.1781947982        4.0978477797       -0.9934101172
 C          0.0593289078        4.7542869090       -0.1789436571
 C         -1.0689549120        3.8081048585        0.2559461222
 H         -2.0276760821        4.2431291884       -0.0338500278
 H         -0.9808457216        2.8468586088       -0.2548399682
 C         -1.0958721822        3.5649287179        1.7660412821
 H         -0.9292964826        4.5116131877        2.2857032726
 H         -2.0894852522        3.2057087575        2.0437281118
 C         -0.0856625920        2.5323766279        2.2596277919
 H         -0.1767245122        2.4553136474        3.3460408118
 H         -0.3360170517        1.5534318281        1.8401181114
 C          1.3809624780        2.8349225085        1.9063974723
 H          2.0152156979        2.3855036684        2.6754721122
 H          1.5698718277        3.9055973586        1.8844783128
 H          0.4826995775        5.2365486588        0.7010374232
 H         -0.3527523923        5.5484122392       -0.8047720169
 H          0.8625818684        4.0095856701       -2.0364387673
 H          2.0578243880        4.7496777899       -0.9798511568
 O          1.9487368089        2.0243022402       -1.7432400179
 C          2.3945443393        0.7160197204       -1.7029599584
 O          2.5992967496        0.2048567009       -2.8258681786
 O          2.4134969187        0.2681083588        1.8810081914
 C          2.9897172596       -1.3430973700       -0.4204039592
 C          1.9083127197       -2.1401430006        0.2722934703
 C          2.1613523198       -3.1894625609        1.1450435299
 C          1.1114112299       -3.8574927715        1.7537681394
 C         -0.1999492202       -3.4855347618        1.5251072193
 C         -0.4631554603       -2.4326896015        0.6531084597
 C          0.5867550296       -1.7999356109        0.0123469401
 H          0.3745589396       -1.0050504707       -0.6876653196
 N         -1.7776550804       -1.9775050118        0.4581616896
 S         -2.1541788705       -0.8346894214       -0.7124502100
 O         -1.9336260801       -1.3735674507       -2.0390411002
 O         -1.4898168709        0.4036037787       -0.3998043093
 C         -3.9026164806       -0.6701352920       -0.4101669902
 C         -4.3245271510        0.2277675475        0.5515481901
 C         -5.6804957011        0.3425327070        0.8131999499
 C         -6.5871054108       -0.4397134430        0.1132258893
 C         -6.1494099203       -1.3349035925       -0.8512637110
 C         -4.7943460002       -1.4540488019       -1.1174833607
 H         -4.4092921399       -2.1262527315       -1.8674543610
 H         -6.8570013500       -1.9383407124       -1.3965975514
 H         -7.6420236708       -0.3482619234        0.3181321792
 H         -6.0241642815        1.0404322465        1.5594719901
 H         -3.5812285113        0.8189524275        1.0614018805
 H         -2.4874290202       -2.6877585120        0.5607608092
 H         -1.0132046701       -3.9917651422        2.0213261489
 H          1.3202656900       -4.6739506517        2.4284396290
 H          3.1780983499       -3.4801192607        1.3537191699
 H          3.0439874799       -1.6742405296       -1.4690230793
 C          4.3541939595       -1.5032144699        0.2171038510
 C          5.2654646499       -2.6129736895       -0.2112802893
 C          5.5727231696       -1.1988436192       -0.5996523086
 H          6.4019393794       -0.6984527292       -0.1228054783
 H          5.4158710797       -0.9021986988       -1.6269446185
 H          5.8896049099       -3.0840115496        0.5330677106
 H          4.9117933803       -3.2820261992       -0.9813644797
 H          4.3603206892       -1.2042661304        1.2588361911
