  62
        -98.94571640
 C         -0.9532290927       -1.1570354278       -0.2604187170
 C         -1.9783267105       -1.1998679895        0.7215118984
 C         -2.8735967410       -0.0390343183        0.7862717820
 C         -2.6809139784        0.9827999126       -0.0669923818
 C         -3.5664683179        2.1900946610       -0.1704210803
 C         -4.6906401844        1.9666189197       -1.1921931562
 C         -5.4459970232        0.6508295915       -1.0054878795
 H         -6.2327386891        0.6171508959       -1.7624135543
 H         -4.7686945209       -0.1814820271       -1.2102167924
 C         -6.0673074834        0.4672182659        0.3861689142
 H         -6.1329924749        1.4306293404        0.8929398315
 H         -7.0866527536        0.0934424931        0.2681997944
 C         -5.3286475721       -0.5279740129        1.2828784094
 H         -5.1826160767       -1.4677118831        0.7443043493
 H         -5.9625492866       -0.7423086513        2.1474808556
 C         -3.9680135874       -0.0618200002        1.8160379713
 H         -4.0741699485        0.9173115574        2.2867575260
 H         -3.6480717913       -0.7782284229        2.5780327123
 H         -5.3904681730        2.8015896372       -1.1241177855
 H         -4.2539885732        1.9699536181       -2.1936040445
 H         -3.9908133796        2.4082341812        0.8075541973
 H         -2.9612078133        3.0369058028       -0.4953254729
 O         -1.6791259761        1.0004724914       -0.9791548777
 C         -0.7838064936       -0.0537524644       -1.0973566278
 O          0.0807719181        0.1312723036       -1.9758648320
 H          1.9788836087       -0.5987371866       -0.8071628450
 C          2.1388196014       -1.1733389403        0.0917222825
 C          1.2118437395       -2.1323446547        0.4780364586
 C          1.4405971645       -2.8573566586        1.6422375140
 C          2.5737379468       -2.6307214155        2.4023947341
 C          3.4909377662       -1.6686170836        2.0223910095
 C          3.2680733327       -0.9335900978        0.8617795728
 N          4.1802635983        0.0529625546        0.4706393914
 S          3.7567065085        1.3363893429       -0.5002993852
 O          3.6613111610        0.9149322387       -1.8744118600
 O          4.7847742171        2.3229432786       -0.2289091531
 C          2.1973462211        1.9793345489        0.0839880907
 C          1.8476931862        1.8718588564        1.4149898531
 C          0.6647369021        2.4510964782        1.8453880416
 C         -0.1340331348        3.1428992851        0.9492835903
 C          0.2358976864        3.2503594452       -0.3816731304
 C          1.4090209916        2.6590937520       -0.8212183610
 H          1.7178048994        2.6969797112       -1.8534100306
 H         -0.3866891376        3.7813237512       -1.0840456733
 H         -1.0514209830        3.5962127423        1.2908935133
 H          0.3703321755        2.3605998787        2.8787864890
 H          2.4823323369        1.3364837934        2.1022485132
 H          4.8911931534        0.2925790977        1.1449220837
 H          4.3730735833       -1.4823699071        2.6155371306
 H          2.7408210025       -3.2019472130        3.3027052184
 H          0.7131168574       -3.5912310795        1.9558848747
 C         -0.0389932933       -2.3694179228       -0.3331389266
 H         -0.6004045512       -3.1785793876        0.1543128344
 C          0.2954760717       -2.8074918256       -1.7442941123
 C          0.7022552384       -4.2299385267       -1.9820325480
 C         -0.6317322314       -3.7415449093       -2.4598214503
 H         -0.7848056227       -3.6028879978       -3.5195717370
 H         -1.5142056083       -4.0723650492       -1.9314037245
 H          1.4701220050       -4.4290777704       -2.7137772142
 H          0.7222969358       -4.8941520417       -1.1311987682
 H          0.7799141714       -2.0409482489       -2.3350884741
 O         -2.1413966890       -2.1747727151        1.5029664890
