  62
        -98.94474789
 C         -1.9508909581       -0.2593748711       -0.0675010567
 C         -2.9624549090       -0.7125344111        0.8157737118
 C         -4.2042059804        0.0705342075        0.8318121641
 C         -4.2984875444        1.1679486795        0.0589082460
 C         -5.5210531909        2.0302045111       -0.0586883377
 C         -6.4285202291        1.5538207384       -1.2016793124
 C         -6.7182220072        0.0529976203       -1.1756624310
 H         -7.3905407997       -0.1627950203       -2.0088553841
 H         -5.7902045061       -0.4922020553       -1.3621792753
 C         -7.3464766462       -0.4496296537        0.1316923984
 H         -8.1723476177       -1.1211580377       -0.1123137924
 H         -7.7656214979        0.3896009393        0.6879975821
 C         -6.3902719935       -1.2298667939        1.0356872514
 H         -6.9817295894       -1.7184239242        1.8145745831
 H         -5.8987752214       -2.0158211682        0.4568484671
 C         -5.3081851264       -0.3991457593        1.7369758039
 H         -5.7692872075        0.4454151685        2.2530597930
 H         -4.8304632958       -1.0391155134        2.4845344432
 H         -5.9435533513        1.7927097100       -2.1510543558
 H         -7.3671364623        2.1087000293       -1.1510759898
 H         -6.0653805578        2.0105531840        0.8834952879
 H         -5.2018221713        3.0538411451       -0.2619581060
 O         -3.2940643459        1.5934807746       -0.7478152463
 C         -2.0991780512        0.8930572008       -0.8392168361
 O         -1.2771113505        1.3935204159       -1.6302254816
 H          1.3301877704        0.4011071245       -1.3818358930
 C          1.3765245812        0.4758998922       -0.3070391776
 C          0.4469798460       -0.1935746013        0.4729293642
 C          0.5186939530       -0.0595476258        1.8569040642
 C          1.4943913017        0.7243441553        2.4431582875
 C          2.4198877709        1.3935666880        1.6608154179
 C          2.3508668496        1.2717229707        0.2802678661
 N          3.3070085256        1.9356207119       -0.5178941226
 S          4.8958819332        1.4720971358       -0.2495265980
 O          5.3759408308        2.0943431810        0.9583400406
 O          5.6114399390        1.8001282963       -1.4620756715
 C          4.7973809290       -0.2954149767       -0.0299690988
 C          4.5942377104       -1.0803941735       -1.1476069119
 C          4.4244896805       -2.4455056538       -0.9863029680
 C          4.4497796501       -2.9977781682        0.2852686449
 C          4.6549980203       -2.1962060312        1.3972498133
 C          4.8286027506       -0.8302160396        1.2417089742
 H          4.9913506801       -0.1721538215        2.0791634749
 H          4.6745851504       -2.6289328224        2.3844936945
 H          4.3092754028       -4.0601233631        0.4089902023
 H          4.2667284909       -3.0728952666       -1.8488408252
 H          4.5853966140       -0.6149057210       -2.1202321304
 H          3.0932542451        1.8930929184       -1.5042876816
 H          3.1938380856        2.0052445148        2.0958992899
 H          1.5367079014        0.8163999116        3.5177984059
 H         -0.2086085284       -0.5769004807        2.4669942679
 C         -0.6482393301       -1.0399085415       -0.1250590090
 H         -0.8026983192       -1.9060599088        0.5326132601
 C         -0.3408389470       -1.5349813985       -1.5227849915
 C          0.7397342912       -2.5558617635       -1.7163553868
 C         -0.6969059013       -2.9404069227       -1.8994386318
 H         -1.0582334831       -3.1288565458       -2.8994098784
 H         -1.1623298691       -3.5570995034       -1.1447938958
 H          1.3663001823       -2.4819384442       -2.5919235437
 H          1.2543034985       -2.9065778240       -0.8347128182
 H         -0.4622170920       -0.7725913843       -2.2831195974
 O         -2.8312801081       -1.7246796209        1.5541914590
