  62
        -98.94652787
 C          0.6688354138        1.7982382535        0.6665492194
 C          1.4345660206        1.8806742050       -0.5213722974
 C          2.6683956382        1.0864216546       -0.5373589004
 C          3.0024319723        0.3441945678        0.5337927949
 C          4.2454998375       -0.4921923602        0.6734818629
 C          4.1342596353       -1.8880587192        0.0460051785
 C          4.1368951882       -1.9246546463       -1.4822219269
 H          4.2740669532       -2.9666029175       -1.7771642108
 H          4.9930494438       -1.3651746972       -1.8602933182
 C          2.8474966537       -1.3951071906       -2.1255331186
 H          2.0508347398       -1.3648515807       -1.3778369479
 H          2.5216377893       -2.0807920027       -2.9105456391
 C          2.9843429644       -0.0117734457       -2.7619394292
 H          2.0049356222        0.2915340600       -3.1412302138
 H          3.6729052101       -0.0633709334       -3.6085001733
 C          3.4758835660        1.0774198115       -1.7998083880
 H          3.3449122128        2.0477063796       -2.2851099983
 H          4.5334162545        0.9365782268       -1.5779212496
 H          3.2193235087       -2.3558304439        0.4120671027
 H          4.9833858309       -2.4742002136        0.4044634893
 H          4.4214860011       -0.6100878885        1.7447530451
 H          5.0927608601        0.0400752415        0.2398322346
 O          2.2348158984        0.2886046207        1.6555402418
 C          1.0438381366        0.9922529207        1.7406204577
 O          0.4209299722        0.8227171458        2.8089117779
 O          1.1113659282        2.5814459998       -1.5151802211
 C         -0.6529486022        2.5391125131        0.7601380723
 C         -1.5735861888        2.0195355056       -0.3182267245
 C         -2.2331923539        2.8287565962       -1.2328020028
 C         -3.0396315041        2.2657816943       -2.2073065212
 C         -3.2239835875        0.8972705254       -2.2738153605
 C         -2.5788754923        0.0789946610       -1.3528433717
 C         -1.7552945641        0.6437813835       -0.3944795089
 H         -1.2476512467        0.0043333805        0.3138936368
 N         -2.7363896018       -1.3156537045       -1.3804485870
 S         -2.9278232353       -2.1397845802        0.0666156262
 O         -3.6557746337       -3.3376479945       -0.2985380303
 O         -3.5451171694       -1.3044470547        1.0697035907
 C         -1.2900541399       -2.6241338158        0.5667800088
 C         -0.8077913426       -2.2415357779        1.8020807886
 C          0.4292303853       -2.7106211384        2.2150504002
 C          1.1549677774       -3.5566487297        1.3914382486
 C          0.6660076308       -3.9167042218        0.1435738664
 C         -0.5687169582       -3.4491113986       -0.2745570867
 H         -0.9905074323       -3.7198161861       -1.2281272509
 H          1.2420319934       -4.5629897103       -0.4991062530
 H          2.1035324773       -3.9433996614        1.7308867044
 H          0.8163108367       -2.4045184425        3.1739464878
 H         -1.3968198068       -1.5812057856        2.4198200557
 H         -3.3769717384       -1.6539940173       -2.0841267170
 H         -3.8583906955        0.4615454712       -3.0308833713
 H         -3.5379567450        2.9039231414       -2.9213852908
 H         -2.1084789684        3.8981567563       -1.1913340017
 H         -1.0896309027        2.2698371778        1.7334402682
 C         -0.4377627929        4.0365929831        0.7176726326
 C         -1.4368080466        4.9562585571        1.3510507468
 C         -0.0948466290        4.7547536993        1.9867526355
 H          0.6226253586        5.5604581080        1.9460003153
 H         -0.0384500709        4.1655689022        2.8907972438
 H         -1.6403698148        5.9043120466        0.8765125031
 H         -2.2958535470        4.5083001105        1.8278614433
 H          0.0568461293        4.3617341587       -0.1899930504
