  62
        -98.93949178
 C         -1.2093696874       -1.4867401088        0.6706725793
 C         -2.2531613969       -1.3088928793       -0.2693131593
 C         -3.2130799572       -0.2269356433        0.0181931525
 C         -3.0567283830        0.5261980515        1.1189150087
 C         -3.9266927125        1.6537326178        1.6157447515
 C         -4.4283166621        2.6719929411        0.5811272581
 C         -3.4790290850        2.9271591547       -0.5988194037
 H         -2.5026685747        2.4842466152       -0.3982995223
 H         -3.3386442937        4.0037550176       -0.7107254406
 C         -4.0132993107        2.3845165057       -1.9263815946
 H         -3.5130884606        2.9056084303       -2.7459041344
 H         -5.0793138990        2.6116940270       -1.9968302103
 C         -3.8046472817        0.8873014488       -2.1483684170
 H         -2.7430117806        0.6795386351       -2.3075296389
 H         -4.3271911073        0.6058467086       -3.0657045794
 C         -4.2907850089       -0.0207246551       -1.0071038809
 H         -4.4992033118       -1.0076755368       -1.4286813824
 H         -5.2033507320        0.3640330433       -0.5582934717
 H         -4.6010969456        3.6062717993        1.1180384088
 H         -5.3948960464        2.3508775529        0.1952995800
 H         -4.7863852407        1.2161922623        2.1316745885
 H         -3.3281167230        2.1645568611        2.3740036609
 O         -2.0341943178        0.3211678988        1.9982410946
 C         -1.0963313475       -0.6755343500        1.8006258567
 O         -0.2240218947       -0.7376875278        2.6918589911
 H          2.1138227382       -1.1203787489        0.8142888152
 C          1.9274247348       -1.3268027568       -0.2290323112
 C          0.8181437378       -2.0798505451       -0.5937428098
 C          0.6023448164       -2.3452927059       -1.9412614082
 C          1.4795062646       -1.8621282759       -2.8956235461
 C          2.5802682065       -1.1084518795       -2.5302687488
 C          2.8071233457       -0.8393784120       -1.1846694947
 N          3.9347336751       -0.1046443176       -0.7912443625
 S          3.9063323736        0.9380860508        0.5110828338
 O          5.1005334538        1.7376641170        0.3389284735
 O          3.8142949270        0.1978004565        1.7428074472
 C          2.4723809498        1.9698817443        0.2708804529
 C          2.5337535877        2.9235897491       -0.7277562672
 C          1.4377869077        3.7408341323       -0.9461600115
 C          0.3016937448        3.5930726487       -0.1643250507
 C          0.2570786527        2.6330848993        0.8337448005
 C          1.3498781348        1.8087565117        1.0555672547
 H          1.3338641386        1.0520892108        1.8250327270
 H         -0.6217370580        2.5116556674        1.4478892500
 H         -0.5519843651        4.2313749479       -0.3292887522
 H          1.4706096034        4.4908213513       -1.7198508191
 H          3.4428482562        3.0223236648       -1.2984371967
 H          4.4873460800        0.2636564950       -1.5511511078
 H          3.2646590372       -0.7354660830       -3.2768032675
 H          1.3011040646       -2.0723859631       -3.9392522003
 H         -0.2669444006       -2.9079216767       -2.2387166406
 C         -0.1288439455       -2.5420541124        0.4882839312
 H          0.4315750129       -2.5606301962        1.4331920181
 C         -0.6943659657       -3.9249415963        0.2382461066
 C          0.2029845750       -5.1139194664        0.3970311567
 C         -0.8844998104       -4.8564221982        1.3955168967
 H         -1.7476659178       -5.5051354732        1.3984013824
 H         -0.6035104574       -4.5009625846        2.3766763437
 H          1.2230167956       -4.9308574669        0.7009853050
 H          0.0891456070       -5.9419187310       -0.2855703918
 H         -1.4402679845       -3.9545270885       -0.5446994085
 O         -2.4051266849       -2.0167706854       -1.2972662923
