  62
        -98.93869704
 C         -2.1098115122       -0.9235146653       -0.3621490070
 C         -3.1254961878       -1.0903312464        0.6072148592
 C         -4.4139766874       -0.4311981944        0.3345664345
 C         -4.5587503327        0.2950781678       -0.7897131595
 C         -5.7534498373        1.0440871733       -1.3423287344
 C         -6.9540346412        1.3650288651       -0.4555574432
 C         -6.6715037416        2.3563057857        0.6726891097
 H         -7.5704322680        2.4372579375        1.2878437781
 H         -6.4799205825        3.3385128863        0.2331756037
 C         -5.4849384868        2.0140775429        1.5703747128
 H         -5.4044310048        2.7966565747        2.3298308699
 H         -4.5629205855        2.0396960100        0.9855656613
 C         -5.5781702129        0.6719999178        2.2939951797
 H         -6.5165305936        0.6181507517        2.8492514285
 H         -4.7590874199        0.6315141035        3.0170104848
 C         -5.4648962854       -0.5737531158        1.3975415868
 H         -6.4241776763       -0.8337091899        0.9565866636
 H         -5.1540260402       -1.4136397295        2.0256379158
 H         -7.3852535484        0.4507273045       -0.0587560998
 H         -7.7091077785        1.8138984407       -1.1067712468
 H         -6.1036818342        0.4560648791       -2.1980179001
 H         -5.3533079462        1.9763092336       -1.7537048612
 O         -3.5484598508        0.4231897359       -1.6994456420
 C         -2.3075677743       -0.1641414117       -1.5133769264
 O         -1.4929728624        0.0596975740       -2.4287587273
 O         -2.9655119517       -1.7657321626        1.6590868942
 C         -0.7544339005       -1.5646576508       -0.1208041821
 C          0.2842949580       -0.4781745060        0.0040483471
 C          0.1583674062        0.4447137883        1.0400565047
 C          1.0616000737        1.4800366316        1.1804946497
 C          2.1147573976        1.6175524725        0.2925593786
 C          2.2563816059        0.6964390228       -0.7357937322
 C          1.3511358016       -0.3499011214       -0.8700454309
 H          1.4724634550       -1.0505012308       -1.6808512088
 N          3.3296689362        0.8222614603       -1.6310204909
 S          4.8409223452        1.1867397009       -1.0178541884
 O          4.9429277119        2.6038097693       -0.7718376663
 O          5.7784707867        0.6446660199       -1.9761970143
 C          4.9404966157        0.2983437299        0.5270298610
 C          5.1145823064        0.9887752335        1.7088940339
 C          5.1565951948        0.2807390871        2.8994528521
 C          5.0206870061       -1.0984708760        2.8874086224
 C          4.8506990145       -1.7786159715        1.6910152873
 C          4.8094588370       -1.0761108567        0.4979480962
 H          4.6843741411       -1.5763705344       -0.4487488957
 H          4.7472353277       -2.8517971470        1.6842636651
 H          5.0479309341       -1.6479127787        3.8151543010
 H          5.2909001919        0.8068916071        3.8308080543
 H          5.2131361284        2.0615637164        1.6734016858
 H          3.3697402651        0.1040517952       -2.3382637702
 H          2.8171873133        2.4311342687        0.3728924162
 H          0.9450277896        2.1909602590        1.9843360299
 H         -0.6683888522        0.3415312687        1.7294182756
 H         -0.8414966190       -2.0681100496        0.8525357659
 C         -0.4470876471       -2.6007476930       -1.1800752745
 C          0.5495089081       -3.6839731524       -0.8967077344
 C         -0.9110012518       -4.0103271821       -0.9743022852
 H         -1.2734304107       -4.5626017485       -1.8284142856
 H         -1.4370344930       -4.2319701255       -0.0573904729
 H          1.1915512898       -4.0187598459       -1.6975485405
 H          1.0166418302       -3.6873617877        0.0762070769
 H         -0.5015118324       -2.2026473995       -2.1871161237
