  62
        -98.94300879
 C         -2.0076876740       -1.4715475587       -0.0049035441
 C         -1.6848169726       -0.1753514485       -0.4737793374
 C         -2.8265774740        0.7043831924       -0.7590464327
 C         -4.0820988333        0.2572803910       -0.5824180192
 C         -5.3444560267        1.0300011624       -0.8524417804
 C         -5.7693091938        1.9518149121        0.2991855475
 C         -4.9052882800        3.1994805411        0.4890774321
 H         -4.8161991822        3.7261453273       -0.4615432336
 H         -5.4411879454        3.8571945165        1.1763575216
 C         -3.5078642682        2.9215929113        1.0608504223
 H         -3.4892268002        1.9243609296        1.5065200960
 H         -3.2941816461        3.6329199316        1.8617112638
 C         -2.3715179562        3.0293075552        0.0437260512
 H         -1.4386624201        2.7620897341        0.5471679598
 H         -2.2882064277        4.0614864649       -0.3039398938
 C         -2.5312436846        2.1133595187       -1.1765629144
 H         -3.3165671602        2.4902584209       -1.8313485541
 H         -1.5883425938        2.1054472091       -1.7293015571
 H         -6.7939607541        2.2725761886        0.0974337525
 H         -5.7798189832        1.3714503785        1.2247819134
 H         -5.2280679543        1.6151495453       -1.7651956880
 H         -6.1335194112        0.2917315125       -1.0112264472
 O         -4.3525599526       -0.9979997911       -0.1339698952
 C         -3.3306626130       -1.8749986751        0.1944187223
 O         -3.7228516888       -2.9677852525        0.6499104533
 O         -0.5124280720        0.2425659131       -0.6484349994
 C         -0.9266318930       -2.4726421463        0.3640230302
 C          0.1623887915       -1.7889752609        1.1553627349
 C         -0.1724180863       -1.2088706255        2.3770546793
 C          0.7828462857       -0.5723619461        3.1444199495
 C          2.0953366833       -0.5031758520        2.7105400792
 C          2.4423034668       -1.0819003148        1.4959922578
 C          1.4792798927       -1.7249234551        0.7279728716
 H          1.7723856285       -2.1396271243       -0.2215712069
 N          3.7780605392       -1.0603681660        1.0552573878
 S          4.2020462245       -0.4920117154       -0.4601709760
 O          3.4981614053       -1.2256560367       -1.4786868579
 O          5.6462580872       -0.5884816557       -0.4878839264
 C          3.7349644097        1.2304043230       -0.4629183646
 C          2.4007475064        1.5736101370       -0.5494876834
 C          2.0576194788        2.9164566858       -0.4981950344
 C          3.0403472802        3.8842188784       -0.3623096242
 C          4.3759215919        3.5202864091       -0.2765888822
 C          4.7278869669        2.1814234387       -0.3221825981
 H          5.7524673490        1.8515194430       -0.2608176500
 H          5.1405890939        4.2732844378       -0.1725992983
 H          2.7632845857        4.9261034087       -0.3242550328
 H          1.0161248008        3.1892836062       -0.5639751840
 H          1.6440163487        0.8126970448       -0.6539610343
 H          4.4243410501       -0.6879913388        1.7369899173
 H          2.8451952052       -0.0069286260        3.3081015878
 H          0.5052236705       -0.1236871167        4.0863843026
 H         -1.1998382173       -1.2603467933        2.7128594152
 H         -1.4224261265       -3.1958307728        1.0334028786
 C         -0.3921673645       -3.2705502630       -0.8157039715
 C         -1.2596518229       -3.5923711060       -1.9949283429
 C         -0.1106636418       -2.6434424591       -2.1462550755
 H          0.7656130278       -2.9658593200       -2.6900708058
 H         -0.3213446095       -1.5918652075       -2.2583744472
 H         -1.1804402568       -4.5748875088       -2.4354662156
 H         -2.2622201533       -3.1894730453       -2.0054121188
 H          0.2880909122       -4.0550649289       -0.4967568029
