  62
        -98.93387390
 C         -2.3854862024       -0.7375288650        0.1897453350
 C         -2.5988637133        0.3592342116        1.0571244392
 C         -2.7863059035        1.6863735074        0.4410546638
 C         -2.7148862369        1.7899987951       -0.8986180603
 C         -2.8359509827        3.0268641163       -1.7489380134
 C         -1.5641683185        3.8887965060       -1.7216036666
 C         -0.9536579306        4.0900115209       -0.3371232202
 H         -0.6994565492        3.1162848816        0.0883080145
 H         -0.0123395280        4.6312038264       -0.4663386815
 C         -1.8139406803        4.8798473593        0.6470778619
 H         -2.0203859334        5.8669384029        0.2270395871
 H         -1.2188356329        5.0212539936        1.5530403286
 C         -3.1426955194        4.2363648687        1.0497869945
 H         -3.8905490196        4.3565569462        0.2706254492
 H         -3.5140683248        4.7792221700        1.9239218394
 C         -3.0418347579        2.7706993529        1.4597453687
 H         -2.2545128048        2.6624797214        2.2152496784
 H         -3.9702364507        2.4844382823        1.9693028891
 H         -1.7949298052        4.8588746302       -2.1656418154
 H         -0.8109951095        3.3989244812       -2.3435552061
 H         -3.7034071129        3.6056481992       -1.4457941108
 H         -3.0025743715        2.6863073657       -2.7733230883
 O         -2.4704165159        0.7118729062       -1.6958337457
 C         -2.2747010425       -0.5606519545       -1.1894099083
 O         -2.0255053243       -1.4172730763       -2.0586880450
 O         -2.6281095929        0.2408597229        2.3140031363
 C         -2.1333736955       -2.0969264975        0.8151041083
 C         -0.8676017323       -2.6933032647        0.2493088784
 C         -0.7604079632       -3.9964773623       -0.2158001739
 C          0.4478320820       -4.4654318250       -0.7040601140
 C          1.5640035498       -3.6524294355       -0.7430517825
 C          1.4635106283       -2.3392717863       -0.2914573138
 C          0.2605481148       -1.8816758675        0.2153906954
 H          0.1923090014       -0.8649387754        0.5766772096
 N          2.5638966792       -1.4720101454       -0.3794417100
 S          2.6113571970       -0.0394226390        0.4964497830
 O          2.4312698132       -0.3013516746        1.9087327531
 O          1.7046299481        0.9088173033       -0.1009369611
 C          4.2974016150        0.4478382894        0.1827611693
 C          5.2837579504        0.0808819822        1.0790181189
 C          6.5978928160        0.4304140397        0.8109379457
 C          6.9024534456        1.1353809689       -0.3438576213
 C          5.9017676604        1.4990138294       -1.2327830880
 C          4.5856986233        1.1526076336       -0.9703594028
 H          3.7730835868        1.4182601566       -1.6266886994
 H          6.1413000250        2.0498636687       -2.1280318737
 H          7.9256782204        1.4059917631       -0.5510417509
 H          7.3771647988        0.1527119122        1.5021732081
 H          4.9978250120       -0.4567983635        1.9687343330
 H          3.4562539468       -1.9430915735       -0.4157911482
 H          2.5011629302       -4.0184527763       -1.1330233959
 H          0.5184885944       -5.4808614256       -1.0635984286
 H         -1.6235513346       -4.6414031497       -0.2131311407
 H         -1.9424539611       -1.8705199479        1.8792245234
 C         -3.3241717070       -3.0433203181        0.7835141306
 C         -4.7207204636       -2.5278326546        0.6089237523
 C         -4.0796364350       -3.3360583192       -0.4769280837
 H         -4.4330429632       -4.3438318566       -0.6392983595
 H         -3.7594850331       -2.8316355685       -1.3746428068
 H         -5.5093975485       -2.9781263597        1.1930078778
 H         -4.8455187170       -1.4663017109        0.4495800838
 H         -3.2058908245       -3.8665119617        1.4816677616
