  62
        -98.94544521
 C         -1.7742962698       -1.4484943005        0.2111059804
 C         -1.5475045102       -0.1186520105       -0.2206688997
 C         -2.5588739506        0.8621497692        0.1945470701
 C         -3.6027689506        0.4732923288        0.9484889800
 C         -4.6982715710        1.3633086085        1.4703201798
 C         -5.8299014209        1.6200826080        0.4656841796
 C         -5.4731634811        2.5525227180       -0.6927197304
 H         -6.4086020312        2.8180963677       -1.1893109205
 H         -5.0427120015        3.4729000782       -0.2970831004
 C         -4.5211191708        1.9391813683       -1.7289883702
 H         -4.5068965804        0.8531186383       -1.6118133801
 H         -4.8949500707        2.1469785381       -2.7342111803
 C         -3.0866639710        2.4631042288       -1.6602166501
 H         -2.4938215707        1.9343799090       -2.4107293800
 H         -3.0742402013        3.5267602688       -1.9080175402
 C         -2.4082910311        2.2695414792       -0.2977651900
 H         -2.8156422214        2.9724627491        0.4283387499
 H         -1.3392503311        2.4588382296       -0.4159526599
 H         -6.1704947905        0.6605043178        0.0697260097
 H         -6.6610954312        2.0641550277        1.0184491695
 H         -4.2744707813        2.3147113887        1.7929123698
 H         -5.1204227409        0.8576948884        2.3415191898
 O         -3.7740995002       -0.8133448712        1.3554730901
 C         -2.8734007898       -1.8016559609        0.9946542203
 O         -3.1527952594       -2.9368163810        1.4313593003
 O         -0.5600588703        0.2371725798       -0.9135658196
 C         -0.7850836893       -2.5454275102       -0.1464941094
 C          0.5591386804       -2.1616302897        0.4205480607
 C          0.7093577803       -2.1159836695        1.8042393907
 C          1.8986130800       -1.7029411291        2.3732423409
 C          2.9604811000       -1.3129714887        1.5749438010
 C          2.8168565402       -1.3471591689        0.1951251709
 C          1.6274473204       -1.7834066394       -0.3749117192
 H          1.5334463505       -1.8000946695       -1.4487948192
 N          3.8823056501       -0.9375285186       -0.6281410890
 S          4.6047595196        0.5378125617       -0.3069058090
 O          5.2977723396        0.8869771819       -1.5269317989
 O          5.4255554995        0.4176829921        0.8726123611
 C          3.2715656491        1.6826478213       -0.0064739992
 C          2.9523276188        2.0388390112        1.2876381907
 C          1.8988401085        2.9131793109        1.4992595605
 C          1.1886807084        3.4138850805        0.4196792904
 C          1.5199454187        3.0435073506       -0.8743159696
 C          2.5683728591        2.1659462709       -1.0913810394
 H          2.8588682493        1.8626625310       -2.0842941493
 H          0.9619506687        3.4293495303       -1.7124590297
 H          0.3722149082        4.0988740603        0.5885568702
 H          1.6346073482        3.2007498309        2.5043831904
 H          3.5357635289        1.6374198815        2.0998013208
 H          3.6732500003       -1.0102849787       -1.6136145790
 H          3.8933722598       -0.9800851084        1.9999809010
 H          2.0006275099       -1.6780415089        3.4476946409
 H         -0.1278405497       -2.4013507198        2.4271521607
 H         -1.1326137991       -3.4519105203        0.3674598306
 C         -0.7817858591       -2.8003651203       -1.6388052894
 C         -0.2349492985       -4.0891406102       -2.1732125792
 C         -1.7108160686       -3.8304553607       -2.2037755594
 H         -2.1810942386       -3.6339177110       -3.1557310395
 H         -2.3412013485       -4.3667934109       -1.5094907395
 H          0.3072132716       -4.0746465101       -3.1066760892
 H          0.1396587316       -4.8061617300       -1.4584886991
 H         -0.6297221193       -1.8996894903       -2.2219985194
