  62
        -98.94571370
 C         -0.9800294422       -1.1425453012       -0.2453977028
 C         -2.0285671652       -1.2063917968        0.7103557708
 C         -2.9137027012       -0.0405285281        0.7859715909
 C         -2.6944533401        1.0121192669       -0.0219023427
 C         -3.5069481133        2.2778784250       -0.0669767979
 C         -4.7731393246        2.1759581076       -0.9290646420
 C         -5.9062994800        1.3421470951       -0.3297442685
 H         -6.1125846494        1.6856916685        0.6843559471
 H         -6.7987510668        1.5383388122       -0.9274703867
 C         -5.6434634008       -0.1701925329       -0.3195772555
 H         -4.8305344901       -0.4036304361       -1.0111100277
 H         -6.5302586489       -0.6964598517       -0.6802939966
 C         -5.3031288929       -0.7452978469        1.0553079518
 H         -5.0998794208       -1.8128713797        0.9390823959
 H         -6.1624857880       -0.6371447740        1.7208582188
 C         -4.0818064661       -0.1005473959        1.7235589842
 H         -4.3332170894        0.8970014410        2.0824262996
 H         -3.7923620122       -0.7187754446        2.5766314223
 H         -4.4993958902        1.7693289556       -1.9053803167
 H         -5.1437244007        3.1918243776       -1.0848428352
 H         -2.8625880630        3.0457575208       -0.4982920847
 H         -3.7799434301        2.5753047574        0.9457149075
 O         -1.6683653681        1.0462378079       -0.9096647098
 C         -0.7895031372       -0.0193351805       -1.0507741690
 O          0.0847774011        0.1766610890       -1.9173487462
 O         -2.2178748139       -2.1992461337        1.4622553753
 C         -0.0711170040       -2.3577578888       -0.3339550503
 C          1.1780042345       -2.1361930154        0.4842006086
 C          1.3834207327       -2.8544277723        1.6570863578
 C          2.5139061700       -2.6415912217        2.4251249234
 C          3.4524264071       -1.7006159241        2.0441287518
 C          3.2529458171       -0.9722822098        0.8750941900
 C          2.1256434283       -1.1975957418        0.0979073005
 H          1.9833187255       -0.6263390395       -0.8058524135
 N          4.1875687542       -0.0078106201        0.4817660693
 S          3.8010704847        1.2716216215       -0.5094131067
 O          3.6970078780        0.8322719876       -1.8773633386
 O          4.8554882853        2.2334379222       -0.2503350937
 C          2.2593277789        1.9664001841        0.0620006970
 C          1.4947633363        2.6607446563       -0.8524255787
 C          0.3387283763        3.2913874062       -0.4225237741
 C         -0.0379911085        3.2088091222        0.9082023794
 C          0.7360891998        2.5011161686        1.8135066335
 C          1.9018536829        1.8815254109        1.3924902440
 H          2.5172300680        1.3327259920        2.0866971730
 H          0.4357467233        2.4293228176        2.8466976012
 H         -0.9417235185        3.6940813581        1.2421562177
 H         -0.2659447198        3.8337397037       -1.1318594542
 H          1.8079968253        2.6798045275       -1.8837604351
 H          4.8977196954        0.2244789588        1.1593753696
 H          4.3332135824       -1.5258575694        2.6427719087
 H          2.6625902461       -3.2075129339        3.3319998732
 H          0.6399325397       -3.5722038822        1.9706520143
 H         -0.6377310866       -3.1708557588        0.1407682253
 C          0.2618110553       -2.7762542114       -1.7513938997
 C          0.6666867088       -4.1956701222       -2.0096093950
 C         -0.6674504847       -3.6991992576       -2.4785805537
 H         -0.8217592847       -3.5458944754       -3.5361580125
 H         -1.5496211848       -4.0362066502       -1.9535753482
 H          1.4333360906       -4.3853262794       -2.7451716470
 H          0.6873193529       -4.8716330322       -1.1680902484
 H          0.7460901882       -2.0020325020       -2.3322528123
