  62
        -98.94428265
 C         -1.7359325929        1.1295431758        0.4070728676
 C         -3.0811862664        1.3508033615        0.0296105668
 C         -4.0043215401        0.2383441184        0.2810866738
 C         -3.5453785661       -0.8968197669        0.8393929799
 C         -4.3669915160       -2.1137722920        1.1691876990
 C         -4.5820769214       -3.0640729323       -0.0169471715
 C         -5.5569064746       -2.5647673773       -1.0842508500
 H         -5.7820887432       -3.4125178250       -1.7345201304
 H         -6.4911632565       -2.2627021687       -0.6097970307
 C         -5.0185543968       -1.4133260336       -1.9449986946
 H         -5.2296377885       -1.6155444900       -2.9975968256
 H         -3.9323562540       -1.3583544955       -1.8415788994
 C         -5.6163214406       -0.0448931983       -1.6182222055
 H         -5.1382328616        0.7006370748       -2.2589108722
 H         -6.6846485636       -0.0473083167       -1.8460013715
 C         -5.4286585034        0.3931942053       -0.1599475678
 H         -5.6862832306        1.4526844399       -0.0852126744
 H         -6.0931164700       -0.1741843088        0.4914588529
 H         -4.9687460838       -4.0035561786        0.3847001215
 H         -3.6141073138       -3.2728954886       -0.4781050850
 H         -3.8239439193       -2.6532698157        1.9479746684
 H         -5.3335270576       -1.8064297518        1.5696550594
 O         -2.2449273403       -1.0653350276        1.1982047973
 C         -1.3051026478       -0.0651133373        0.9857076052
 O         -0.1528233327       -0.3549346616        1.3537694713
 H          2.0081977816        2.1056353389        0.6466291180
 C          1.7260116074        1.6785095944       -0.3027549140
 C          0.3981373025        1.6801381494       -0.6967408349
 C          0.0711384120        1.1200330466       -1.9293635210
 C          1.0443349038        0.5638254876       -2.7362783240
 C          2.3686656195        0.5523120990       -2.3326283306
 C          2.7057494175        1.1111962673       -1.1083455026
 N          4.0513150279        1.1030124848       -0.6879669560
 S          4.8158130693       -0.3834298216       -0.5689108397
 O          6.0236392334       -0.1250576009        0.1821642005
 O          4.9942266398       -0.9292598468       -1.8905980083
 C          3.7049974432       -1.4035958118        0.3795825501
 C          2.7527798396       -2.1601307550       -0.2719354605
 C          1.8521038135       -2.8931333630        0.4826935737
 C          1.9155621701       -2.8544101465        1.8658699207
 C          2.8789909181       -2.0904897035        2.5048701410
 C          3.7804312269       -1.3523696501        1.7568113310
 H          4.5473804092       -0.7482684303        2.2152602083
 H          2.9228373584       -2.0610142837        3.5819669234
 H          1.2044027966       -3.4178561544        2.4488736549
 H          1.0958536978       -3.4834218268       -0.0097196344
 H          2.7336737090       -2.1656490666       -1.3496750990
 H          4.2011462816        1.6216196138        0.1663273077
 H          3.1403759944        0.1089162896       -2.9408318638
 H          0.7722557806        0.1322851866       -3.6879527014
 H         -0.9644264802        1.1196186829       -2.2419577650
 C         -0.7122722762        2.2244899741        0.1658192327
 H         -1.2421100837        3.0047300094       -0.3995576231
 C         -0.2440380844        2.8090767678        1.4814026972
 C          0.3047127149        4.2030159754        1.5332586869
 C         -1.0448235263        3.9062761288        2.1132103126
 H         -1.1581040739        3.9090775777        3.1869588613
 H         -1.9198961929        4.2510179110        1.5821391219
 H          1.1174144088        4.4146801886        2.2118741617
 H          0.3483199895        4.7572206577        0.6079051244
 H          0.1846917872        2.0626301629        2.1411353547
 O         -3.4895011704        2.4233988299       -0.4916047880
