  62
        -98.94796120
 C          0.7862108457        1.1882000864        0.5735264493
 C          1.2645187029        0.6978508323       -0.6651734116
 C          2.1990619907       -0.4335029691       -0.5836473071
 C          2.4527611969       -0.9926562931        0.6128635342
 C          3.4481501637       -2.0902151015        0.8515211920
 C          4.8313236164       -1.5146054575        1.1907537145
 C          5.3041685222       -0.4237183991        0.2295818093
 H          4.6505575168        0.4460932438        0.3283491827
 H          6.2997141352       -0.1144765600        0.5557058650
 C          5.3589897772       -0.8524782941       -1.2434192786
 H          6.2993477714       -0.5023428313       -1.6742663602
 H          5.3570513738       -1.9407648441       -1.3120033558
 C          4.2324150093       -0.2875263651       -2.1107237597
 H          4.1715723379        0.7948202787       -1.9726297415
 H          4.4861004397       -0.4698646379       -3.1582472606
 C          2.8424637463       -0.8877563885       -1.8628685372
 H          2.1819522372       -0.5480098290       -2.6652444957
 H          2.9058498456       -1.9754171987       -1.9017299033
 H          5.5535139934       -2.3330757908        1.1982369224
 H          4.7913987537       -1.0884958334        2.1960712160
 H          3.1050345683       -2.6930607437        1.6936226949
 H          3.5126579760       -2.7173698586       -0.0348669200
 O          1.8670688264       -0.5751056134        1.7657858432
 C          1.0565698172        0.5481245132        1.7820666192
 O          0.6415513687        0.8687206741        2.9154371665
 H         -1.8215762741        0.4907686851        0.9207347034
 C         -2.1131116941        1.1390281553        0.1061499852
 C         -1.3200862982        2.2371142063       -0.2057426269
 C         -1.7211354216        3.0798219173       -1.2334591766
 C         -2.8798589869        2.8131223096       -1.9421131592
 C         -3.6598975653        1.7130082163       -1.6395810398
 C         -3.2746897148        0.8725032189       -0.5995711565
 N         -4.0619206595       -0.2317279379       -0.2539107986
 S         -3.5017624717       -1.4962938302        0.6592851654
 O         -4.4989275691       -2.5299745319        0.4697202682
 O         -3.2895243495       -1.0824032263        2.0242788559
 C         -1.9701431283       -2.0623535503       -0.0599698203
 C         -1.0514246949       -2.6570880973        0.7810360394
 C          0.0831935028       -3.2359620670        0.2376783259
 C          0.2831671102       -3.2023247623       -1.1329238199
 C         -0.6343255357       -2.5790948456       -1.9626820318
 C         -1.7781749976       -2.0107138934       -1.4256165238
 H         -2.5099750808       -1.5322034167       -2.0556108690
 H         -0.4671206024       -2.5398499674       -3.0268429486
 H          1.1574104858       -3.6694227359       -1.5568157251
 H          0.8002867686       -3.7146884799        0.8847152741
 H         -1.2418105112       -2.6529963843        1.8431250319
 H         -4.7965421425       -0.4856823323       -0.8956862436
 H         -4.5618154302        1.5047492323       -2.1940062433
 H         -3.1775542532        3.4702975322       -2.7448406030
 H         -1.1241633477        3.9398996533       -1.4865749449
 C         -0.0680255851        2.4431552140        0.6093676068
 H         -0.3681132573        2.5767176120        1.6592222145
 C          0.7531702199        3.6408031639        0.1782127664
 C          0.3973408780        5.0121911869        0.6653241055
 C          1.6217460565        4.3248460180        1.1889196113
 H          2.5906186271        4.6860009548        0.8778906859
 H          1.6035010874        3.9413145617        2.1991163737
 H          0.5282500498        5.8490057599       -0.0039260993
 H         -0.4528818775        5.1027097902        1.3244314799
 H          1.1444449200        3.5388180717       -0.8274136371
 O          0.9489568388        1.1916035775       -1.7779665693
