  62
        -98.93948010
 C          2.2795165562       -0.5319055155        0.3039098107
 C          3.4198460461       -0.8065255406       -0.4972900483
 C          4.2520602995        0.3437228284       -0.8691142784
 C          3.8872887456        1.5735579902       -0.4640284698
 C          4.6633436939        2.8305915561       -0.7273164706
 C          5.6574265342        3.1173145789        0.4068524667
 C          6.5174333085        1.9138711381        0.7928230340
 H          7.1996676396        2.2407594621        1.5805466658
 H          5.8764787831        1.1411240390        1.2234177787
 C          7.3250280681        1.3130165843       -0.3661768011
 H          7.3909033993        2.0316467980       -1.1838514391
 H          8.3430720057        1.1207572850       -0.0209433912
 C          6.7785760940       -0.0124632578       -0.9000723201
 H          6.6234761725       -0.7059217307       -0.0696601601
 H          7.5344293546       -0.4522371121       -1.5562073452
 C          5.4741864008        0.0778535017       -1.7022904641
 H          5.3076034499       -0.8934856450       -2.1770062264
 H          5.5762051556        0.8300567773       -2.4871893008
 H          5.0951073298        3.4328903690        1.2886515975
 H          6.3013210193        3.9436659225        0.1005577686
 H          5.1930398933        2.7321054001       -1.6728580050
 H          3.9589686416        3.6608511182       -0.8002263240
 O          2.7794135216        1.8029661385        0.2823105140
 C          1.9531223147        0.7669936505        0.6935262147
 O          0.9900550042        1.1517745729        1.3869220063
 O          3.7296710031       -1.9668528219       -0.8782810126
 C          1.4223529797       -1.7227712622        0.7015335829
 C          0.1798691455       -1.7970169538       -0.1545783674
 C          0.0551901693       -2.7774658629       -1.1321437920
 C         -1.0806285461       -2.8472177698       -1.9197066794
 C         -2.1111723349       -1.9394285310       -1.7547376398
 C         -1.9933566301       -0.9515212349       -0.7852840118
 C         -0.8590334776       -0.8922720906        0.0126483456
 H         -0.7648434268       -0.1119947375        0.7531864733
 N         -3.0162776999        0.0086408981       -0.6276824034
 S         -4.5807345065       -0.5766183311       -0.3748170093
 O         -4.6076411094       -1.4615947818        0.7700788063
 O         -5.0649928050       -1.1360765079       -1.6113673866
 C         -5.4510132275        0.9341682979       -0.0116436562
 C         -5.8561245316        1.7339471869       -1.0629843700
 C         -6.5122087870        2.9224278684       -0.7853645638
 C         -6.7501573517        3.2893232368        0.5309584458
 C         -6.3380403505        2.4756206054        1.5754051151
 C         -5.6799438320        1.2861866343        1.3045670550
 H         -5.3496482105        0.6190686967        2.0848230104
 H         -6.5264057442        2.7622134514        2.5975714304
 H         -7.2623811229        4.2141585722        0.7445927361
 H         -6.8361373016        3.5573194381       -1.5941889885
 H         -5.6575693700        1.4040333941       -2.0692173572
 H         -2.7813074295        0.6640576003        0.1071893597
 H         -3.0037556440       -1.9878360947       -2.3567387116
 H         -1.1647528838       -3.6161094198       -2.6730386863
 H          0.8624897981       -3.4807446778       -1.2784599318
 H          2.0358303306       -2.6038211652        0.4698001258
 C          1.0859928286       -1.7504788114        2.1795678617
 C          0.6358175361       -3.0395929245        2.7963286753
 C          1.9882848744       -2.4834538959        3.1243747683
 H          2.1522291268       -2.0673080380        4.1070666073
 H          2.8556916923       -2.9748446624        2.7082084441
 H         -0.1334678731       -3.0079164589        3.5526325255
 H          0.5853138980       -3.9076977690        2.1564618837
 H          0.6332797648       -0.8358451124        2.5392982351
