  62
        -98.94487324
 C         -2.2052976029       -1.3243905167        0.1551226548
 C         -2.1103536076       -0.5010196082       -0.9927639907
 C         -2.9357412704        0.7166893528       -0.9790008330
 C         -3.7254257189        0.9748297241        0.0785401447
 C         -4.5563996681        2.2126567310        0.2492544340
 C         -3.7706001517        3.3084812376        0.9838262062
 C         -2.3696352054        3.5476653718        0.4203450640
 H         -1.9210554459        4.3549544101        1.0032564258
 H         -1.7655312202        2.6525125797        0.5859713616
 C         -2.3387992612        3.9160105031       -1.0701226668
 H         -1.6538059573        4.7550863823       -1.2118936661
 H         -3.3266355872        4.2510766934       -1.3884542669
 C         -1.8666159324        2.7929379459       -1.9958930081
 H         -0.9176226964        2.3886016838       -1.6347531821
 H         -1.6843570954        3.2220649586       -2.9849606790
 C         -2.8430862925        1.6238750236       -2.1738905302
 H         -3.8288916159        2.0036948719       -2.4488527854
 H         -2.4732936293        1.0035974222       -2.9956365289
 H         -4.3468367914        4.2344095059        0.9404308839
 H         -3.6712406582        3.0183690679        2.0322420641
 H         -4.8732210276        2.5705502421       -0.7284268974
 H         -5.4403951504        1.9562691051        0.8353875485
 O         -3.8127996459        0.1478981081        1.1504369916
 C         -3.0535881777       -1.0059488120        1.2214027013
 O         -3.2223468061       -1.6633348820        2.2673473013
 H          0.5572898114       -1.7964622606       -1.4004824693
 C          0.9144450329       -1.8711454212       -0.3853158115
 C          0.0427064706       -2.2681132470        0.6179592001
 C          0.5110142439       -2.3107237387        1.9272286328
 C          1.8229686245       -1.9820934946        2.2184822204
 C          2.6926550747       -1.5952335064        1.2140011405
 C          2.2277370777       -1.5279936521       -0.0930299364
 N          3.0877481092       -1.1186060041       -1.1241584075
 S          4.1726744790        0.1181927082       -0.8433220094
 O          4.4543051996        0.6763306677       -2.1468478980
 O          5.3107995355       -0.3944933230       -0.1206376711
 C          3.3172147929        1.3157432523        0.1665096408
 C          3.8092269938        1.6336347770        1.4161220755
 C          3.1361466635        2.5691583502        2.1853944925
 C          1.9899001301        3.1713760213        1.6913022461
 C          1.5114932904        2.8465571862        0.4310729697
 C          2.1767048589        1.9070878535       -0.3396547764
 H          1.8270880418        1.6337453906       -1.3230698800
 H          0.6218538949        3.3208721635        0.0484260658
 H          1.4651150725        3.9001257213        2.2886277668
 H          3.5072416046        2.8253865275        3.1646269371
 H          4.7075995797        1.1462840102        1.7586487777
 H          2.6319527552       -1.0200156884       -2.0192442310
 H          3.7216963538       -1.3521199111        1.4225060714
 H          2.1743147573       -2.0289725722        3.2379161299
 H         -0.1683483625       -2.5964804858        2.7176547497
 C         -1.3983817477       -2.6049462952        0.3160627292
 H         -1.8156893684       -3.1057276686        1.1993957187
 C         -1.5424647118       -3.5358938877       -0.8714779379
 C         -1.1787803787       -4.9799643656       -0.7095297075
 C         -2.6160382993       -4.5801276514       -0.8528604880
 H         -3.1275941209       -4.8097909749       -1.7756440108
 H         -3.2500606223       -4.6303636284        0.0205870923
 H         -0.8374061704       -5.3024147651        0.2626132177
 H         -0.7009457041       -5.4874409257       -1.5334959193
 H         -1.3312671622       -3.0663155296       -1.8229039620
 O         -1.3820579960       -0.7470969383       -1.9913402771
