  62
        -98.93931372
 C         -2.5849228562       -0.1574564294       -0.4556515800
 C         -2.3498200039       -0.8246179183        0.7682574051
 C         -1.8116252356       -2.1939915168        0.6784758895
 C         -1.5492530236       -2.7122241540       -0.5338590043
 C         -0.9015133484       -4.0317404869       -0.8531515586
 C          0.6255121470       -3.8683477183       -0.9627670908
 C          1.3875414617       -4.0848494403        0.3425208888
 H          1.3115835290       -5.1340418261        0.6377780684
 H          2.4391758371       -3.8707453394        0.1390752611
 C          0.9230769592       -3.2022294082        1.5030512100
 H          0.7552483787       -2.1882703876        1.1333631969
 H          1.7329202131       -3.1531561193        2.2341598174
 C         -0.3388227868       -3.7341644548        2.1976447458
 H         -0.5248423614       -4.7564817650        1.8685412814
 H         -0.1656843781       -3.7822072302        3.2750805140
 C         -1.6020982608       -2.8884709216        1.9972939968
 H         -2.4812564542       -3.5106404243        2.1996995973
 H         -1.6164967818       -2.0803139794        2.7357953616
 H          0.8343689729       -2.8604715856       -1.3331251166
 H          1.0031982272       -4.5779509175       -1.7023537665
 H         -1.1656816663       -4.7830090547       -0.1145542857
 H         -1.2921022942       -4.3413954160       -1.8248498220
 O         -1.8030593112       -2.0378303245       -1.6913162410
 C         -2.2984012071       -0.7489373287       -1.6835975994
 O         -2.4484637429       -0.2434351906       -2.8175228335
 H         -0.3942753240        0.9867253362       -0.6527229677
 C         -0.6292513793        1.7802233741        0.0409974151
 C         -1.9593178388        2.1106136051        0.2677942590
 C         -2.2418813123        3.1586839275        1.1328123914
 C         -1.2117617483        3.8337893008        1.7672630135
 C          0.1077235805        3.4716082749        1.5710298590
 C          0.4005541694        2.4207860121        0.7060745690
 N          1.7217866518        1.9734536143        0.5424560657
 S          2.1467294990        0.8980422600       -0.6767340267
 O          1.9527346637        1.5068969018       -1.9768274264
 O          1.4939102848       -0.3651092513       -0.4516035898
 C          3.8885882785        0.7393887608       -0.3352109538
 C          4.7860495124        1.5823352979       -0.9630106988
 C          6.1351773672        1.4659607314       -0.6671780051
 C          6.5613925088        0.5147811212        0.2476383647
 C          5.6491979167       -0.3261212979        0.8677796189
 C          4.2989653370       -0.2145472501        0.5762784214
 H          3.5525832318       -0.8498318095        1.0249921130
 H          5.9840411150       -1.0674698455        1.5751962467
 H          7.6116840117        0.4254908149        0.4759653691
 H          6.8470047026        2.1152170785       -1.1508988217
 H          4.4104747984        2.2973124992       -1.6773688110
 H          2.4235543980        2.6822922464        0.6985033858
 H          0.9043153124        3.9839842125        2.0877047879
 H         -1.4429321576        4.6489302289        2.4361988051
 H         -3.2655881435        3.4421120542        1.3158692200
 C         -3.0145669303        1.2987206509       -0.4484575549
 H         -3.0352269690        1.6156864178       -1.5026010052
 C         -4.4001299352        1.4581237409        0.1406120431
 C         -5.3008288343        2.5587564576       -0.3312290579
 C         -5.5887042321        1.1389430297       -0.7137670178
 H         -6.4315239557        0.6401732051       -0.2596257851
 H         -5.3962040694        0.8320883734       -1.7319743554
 H         -4.9237328843        3.2207047243       -1.0963572152
 H         -5.9519441902        3.0354256550        0.3858854996
 H         -4.4407737726        1.1705131940        1.1846213111
 O         -2.5664023435       -0.2963494741        1.8915342592
