  62
        -98.94336187
 C          1.9009462195        0.6158763194       -0.7538708102
 C          2.2543365897        0.1114289205        0.5212563302
 C          3.6883030797        0.1375969611        0.8374028800
 C          4.5619792995        0.6437244604       -0.0519728805
 C          6.0494500195        0.7679298508        0.1393340792
 C          6.8318432697       -0.5095102493       -0.1946617098
 C          6.6831251700       -1.6460000485        0.8175124712
 H          7.4462343501       -2.3894098185        0.5784758318
 H          6.8978851301       -1.2697217876        1.8181981209
 C          5.3079825701       -2.3280503387        0.8053038220
 H          4.7868569400       -2.0798852796       -0.1221430282
 H          5.4396476703       -3.4123265187        0.8179745629
 C          4.4102890102       -1.9667382178        1.9887858818
 H          4.8618204204       -2.3290189169        2.9150164120
 H          3.4517202003       -2.4751894681        1.8592700923
 C          4.1325173000       -0.4649209177        2.1360071105
 H          3.3207005400       -0.3343082873        2.8557188405
 H          5.0187212599        0.0467717127        2.5109036000
 H          6.5245293297       -0.8586475502       -1.1831692994
 H          7.8885777697       -0.2383381192       -0.2521032501
 H          6.3834939593        1.5614129503       -0.5327821915
 H          6.2630648796        1.0691805118        1.1652816889
 O          4.1769395393        1.1383629493       -1.2593430509
 C          2.8461220393        1.1213932688       -1.6453514507
 O          2.6344356591        1.5871593877       -2.7842721111
 O          1.4204730099       -0.3310766089        1.3524541707
 C          0.4471783894        0.6173577187       -1.1863197200
 C         -0.4013700806        1.4131229694       -0.2236201206
 C          0.0955774292        2.6000108200        0.3083835183
 C         -0.6597051908        3.3531767106        1.1854894577
 C         -1.9377285107        2.9526657507        1.5329327382
 C         -2.4522949205        1.7811013401        0.9931176993
 C         -1.6833912205        1.0165183895        0.1256937099
 H         -2.1019397504        0.1112290691       -0.2815729293
 N         -3.7420065404        1.3449961302        1.3290375798
 S         -4.7345624804        0.6801567990        0.1588689905
 O         -4.4894756707        1.2581006379       -1.1417349100
 O         -6.0744287304        0.8442229593        0.6827150105
 C         -4.3375492201       -1.0550901509        0.1484558820
 C         -4.3748312102       -1.7397748620       -1.0499735375
 C         -4.1174015799       -3.1020323919       -1.0535104163
 C         -3.8280750397       -3.7521631108        0.1360804042
 C         -3.7962465397       -3.0500020698        1.3315097836
 C         -4.0575191699       -1.6892290298        1.3426754525
 H         -4.0379789699       -1.1139997590        2.2531284220
 H         -3.5677802395       -3.5584555790        2.2543933540
 H         -3.6249489495       -4.8114945808        0.1310255551
 H         -4.1421718099       -3.6490678027       -1.9828095858
 H         -4.5916079804       -1.1924809228       -1.9535898779
 H         -4.2519346405        1.9586943507        1.9475126093
 H         -2.5310951907        3.5418073612        2.2156917578
 H         -0.2537494709        4.2651751510        1.5970595469
 H          1.0898333192        2.9222982299        0.0296826079
 H          0.4176769092        1.1286635479       -2.1605912805
 C         -0.0331502304       -0.8083670115       -1.3697373187
 C         -1.0607550904       -1.1406026526       -2.4079553983
 C          0.3669400696       -1.5487407225       -2.6092672381
 H          0.6214058098       -2.5946161124       -2.5270057073
 H          0.9578151595       -1.0108156830       -3.3368079787
 H         -1.7850201403       -1.9092813725       -2.1841005876
 H         -1.4496686206       -0.3299804032       -3.0062741190
 H         -0.0493869602       -1.3619298107       -0.4378074183
