  62
        -98.93953305
 C          2.1377241730        0.9937903004        0.0228231992
 C          2.8677862969        0.3302488955        1.0341754067
 C          3.6299937824       -0.8627678045        0.6260022052
 C          3.5794499255       -1.2708754380       -0.6559737167
 C          4.2140048441       -2.4592781034       -1.3483959593
 C          5.3384129294       -3.2465385913       -0.6799548846
 C          6.6470951515       -2.4756292764       -0.5094377429
 H          7.3380557114       -3.0999947751        0.0611139065
 H          7.0846495003       -2.3120147572       -1.4974099454
 C          6.5280254649       -1.1150031362        0.1725448868
 H          7.5295210733       -0.6798338153        0.2267128779
 H          5.9208238212       -0.4480244310       -0.4428602067
 C          5.9562176100       -1.1415547569        1.5885534292
 H          6.5299148658       -1.8367869385        2.2043186866
 H          6.0781435910       -0.1407484340        2.0112301073
 C          4.4656579995       -1.5085855106        1.6937261729
 H          4.3217842872       -2.5865486215        1.6940958725
 H          4.0907121493       -1.1276857031        2.6483200601
 H          5.5428287680       -4.1039037257       -1.3270780531
 H          5.0039897397       -3.6460218381        0.2730188218
 H          3.3907002748       -3.1486436596       -1.5677429349
 H          4.5653773868       -2.0850929550       -2.3152879509
 O          2.8259743068       -0.6186201189       -1.5903054385
 C          2.0956407558        0.5191086524       -1.2867954668
 O          1.4699420835        0.9997021740       -2.2499138121
 H         -0.0789075670        0.1636862590        1.2093289390
 C         -0.6972973061        0.8454442501        0.6374461314
 C         -0.1237144414        1.9998490706        0.1176191545
 C         -0.9266374633        2.8645158878       -0.6134897845
 C         -2.2618083238        2.5671270288       -0.8277157079
 C         -2.8261104837        1.4148930576       -0.3130229601
 C         -2.0332465392        0.5452527032        0.4249486237
 N         -2.5995336322       -0.6223843391        0.9680350411
 S         -3.4708993766       -1.6280383886       -0.0578539209
 O         -3.3894470695       -2.9406506240        0.5464665703
 O         -3.0169986417       -1.5198696666       -1.4250125333
 C         -5.1413895723       -1.0278452555        0.0858970885
 C         -5.8331943870       -0.6375136840       -1.0438513621
 C         -7.1340680090       -0.1778851960       -0.9073974372
 C         -7.7168018350       -0.1184054679        0.3492318852
 C         -7.0090889107       -0.5167187692        1.4736999344
 C         -5.7088984779       -0.9779367159        1.3442136299
 H         -5.1259603943       -1.3004146163        2.1906390241
 H         -7.4654243266       -0.4688084364        2.4492411398
 H         -8.7284973273        0.2407712615        0.4528007973
 H         -7.6854438586        0.1318120779       -1.7806134137
 H         -5.3366083876       -0.6965755613       -1.9994797706
 H         -1.9504343200       -1.1636403941        1.5211240294
 H         -3.8636209079        1.1781419693       -0.4829522042
 H         -2.8720855287        3.2440151170       -1.4058537204
 H         -0.5055437115        3.7659519847       -1.0268558374
 C          1.3434982166        2.2377576469        0.3780068994
 H          1.4799314130        2.3713067524        1.4616189705
 C          1.9038821618        3.4487814949       -0.3367050847
 C          1.7558447410        4.8137336021        0.2642034984
 C          3.0962093273        4.1444002425        0.2462463298
 H          3.8538044650        4.5189457821       -0.4256707055
 H          3.4900898734        3.7583101981        1.1751653472
 H          1.5949910145        5.6529560924       -0.3953622121
 H          1.2406428899        4.8894044835        1.2096658584
 H          1.8591754704        3.3528057993       -1.4157871795
 O          2.8752299051        0.7101052724        2.2369673966
