  62
        -98.93637278
 C          1.7452096021       -0.2180857095        0.3098630231
 C          2.7779989353       -1.0303988076       -0.2093602526
 C          4.1439115013       -0.4765165755       -0.1634414706
 C          4.3290610240        0.7584997075        0.3367930531
 C          5.6149372633        1.5310204477        0.4907470906
 C          6.5860737810        1.4971294107       -0.6996058662
 C          7.8554654487        0.6886335524       -0.4260148403
 H          8.6466654974        1.0453909878       -1.0892357083
 H          8.1775475124        0.8840536701        0.5989546026
 C          7.7227718496       -0.8189110720       -0.6350556060
 H          7.6513485520       -1.0302942766       -1.7041955334
 H          8.6423738249       -1.2846312694       -0.2728787947
 C          6.5317707469       -1.4748366959        0.0666080968
 H          6.4007494148       -1.0602142318        1.0654327450
 H          6.7605602151       -2.5355580597        0.1899361671
 C          5.2181815541       -1.3695121489       -0.7223936835
 H          4.7490326756       -2.3561663105       -0.7874566561
 H          5.4259045969       -1.0684401400       -1.7533265910
 H          6.8820269575        2.5248018615       -0.9166375800
 H          6.0765484669        1.1155348332       -1.5829940104
 H          5.3043316031        2.5596652374        0.6875778885
 H          6.1226898823        1.1820938838        1.3934156812
 O          3.2990870705        1.5092092852        0.8241549463
 C          1.9928067627        1.0507460548        0.8308176143
 O          1.1686568026        1.8506750259        1.3126012657
 O          2.5697270700       -2.1752506332       -0.6952349959
 C          0.3204444865       -0.7429526101        0.3043285054
 C         -0.5715705080        0.1962678108       -0.4674777809
 C         -0.1806268687        0.5823491966       -1.7482920168
 C         -0.9434386974        1.4648992701       -2.4858838636
 C         -2.1225230506        1.9729757262       -1.9682553313
 C         -2.5283435322        1.5859732389       -0.6979342774
 C         -1.7604754999        0.6938636651        0.0410872214
 H         -2.0942539714        0.4250006021        1.0289855093
 N         -3.7158464713        2.0899386200       -0.1477468840
 S         -4.7173052004        1.0922373067        0.7377966433
 O         -6.0171074005        1.7241229959        0.6575599718
 O         -4.1970688950        0.8945443690        2.0667176382
 C         -4.7360466750       -0.4545471758       -0.1520644281
 C         -4.3739501543       -1.6190780332        0.4914830372
 C         -4.3822144901       -2.8095190760       -0.2182360753
 C         -4.7484937796       -2.8134593355       -1.5547696454
 C         -5.1153799117       -1.6349643110       -2.1869189151
 C         -5.1111516650       -0.4431198420       -1.4814148158
 H         -5.4014163483        0.4868496767       -1.9422164102
 H         -5.4029157567       -1.6420878450       -3.2258982213
 H         -4.7496875566       -3.7404652585       -2.1061485286
 H         -4.1011038141       -3.7269030843        0.2741441189
 H         -4.0913009137       -1.5705905709        1.5301865880
 H         -4.2373778795        2.7066829146       -0.7525213472
 H         -2.7158556863        2.6724960377       -2.5371086219
 H         -0.6205723244        1.7610460435       -3.4725250629
 H          0.7425146433        0.1881571753       -2.1507875052
 H          0.3640893632       -1.7000394890       -0.2363804292
 C         -0.1412222117       -1.0055611658        1.7216800276
 C         -1.1468257372       -2.0794866668        2.0040892792
 C          0.2862742343       -2.2738385126        2.3958395442
 H          0.5472495518       -2.2389373254        3.4429781716
 H          0.8864739714       -2.9618882006        1.8186040201
 H         -1.8715772612       -1.9073230543        2.7859263583
 H         -1.5226033467       -2.6423900870        1.1633936658
 H         -0.1706986233       -0.1050752012        2.3258070120
