  62
        -98.93991127
 C         -2.2348094025       -1.0785523339       -0.4564080888
 C         -3.4950978447       -0.8698152879        0.1608301024
 C         -4.2335100663        0.3295327570       -0.2514935413
 C         -3.6912278715        1.1480270305       -1.1711059909
 C         -4.3018710004        2.4372583842       -1.6378253299
 C         -3.8187781909        3.6200942518       -0.7869880800
 C         -3.9287443747        3.3834258150        0.7194201970
 H         -3.2361218216        2.5879367023        1.0053781025
 H         -3.5908126163        4.2953714651        1.2164653944
 C         -5.3408473791        3.0281693433        1.2058988213
 H         -5.5569756468        3.6087472363        2.1051091701
 H         -6.0747570576        3.3134790810        0.4514695116
 C         -5.5342939845        1.5549074202        1.5694573061
 H         -6.4838236098        1.4580746184        2.1023652054
 H         -4.7412687397        1.2391697234        2.2519903586
 C         -5.5706785260        0.5762045782        0.3889997289
 H         -6.2945348423        0.9198376399       -0.3524843345
 H         -5.9022123724       -0.3934697968        0.7713347843
 H         -4.3987517366        4.5028754784       -1.0623930257
 H         -2.7701529635        3.8125666139       -1.0267871987
 H         -4.0051812331        2.6021539972       -2.6749498638
 H         -5.3861216541        2.3581973694       -1.5873783382
 O         -2.4886774438        0.9106229750       -1.7533189056
 C         -1.7218667491       -0.1960029517       -1.4080299498
 O         -0.6451519129       -0.2695697224       -2.0301588226
 O         -3.9828774823       -1.6565493654        1.0161513626
 C         -1.4369009278       -2.2934333125       -0.0086401870
 C         -0.3729606791       -1.8364739886        0.9607200852
 C         -0.6762209336       -1.7821632233        2.3188340486
 C          0.2577295893       -1.3346711016        3.2337363545
 C          1.5106946104       -0.9291236421        2.8108479426
 C          1.8233306574       -0.9760151191        1.4568030148
 C          0.8852478300       -1.4300733152        0.5393582811
 H          1.1372761604       -1.4285939821       -0.5085376131
 N          3.1039923071       -0.5976519897        1.0143763162
 S          3.2344160004        0.2979168953       -0.4146735354
 O          2.3023590678        1.4029590842       -0.3902963085
 O          3.1711355185       -0.6010935132       -1.5374660575
 C          4.9047055701        0.9026293939       -0.2372102481
 C          5.1194490142        2.1755960177        0.2560063148
 C          6.4217551654        2.6212537484        0.4201611026
 C          7.4820236350        1.7892716481        0.0937838644
 C          7.2512648108        0.5139926081       -0.4005115248
 C          5.9516123147        0.0633683380       -0.5686434191
 H          5.7221733369       -0.9148248521       -0.9576695186
 H          8.0778969459       -0.1290427788       -0.6559870933
 H          8.4943743396        2.1380851918        0.2228346847
 H          6.6035423499        3.6132303152        0.8012541610
 H          4.2636042679        2.7891748763        0.4880640880
 H          3.6458627296       -0.1612502357        1.7492538997
 H          2.2429684948       -0.5778962722        3.5222442155
 H          0.0080774343       -1.2972300485        4.2833650687
 H         -1.6627235642       -2.0811351664        2.6439204204
 H         -2.1526404265       -2.9106252229        0.5525637423
 C         -0.8916034038       -3.1185045929       -1.1538872508
 C         -0.4613279305       -4.5289202689       -0.8865948981
 C         -1.7041157516       -4.2620766674       -1.6801434656
 H         -1.6917027210       -4.4546617845       -2.7424374813
 H         -2.6590323526       -4.4533988292       -1.2125971976
 H          0.4085674318       -4.9064173307       -1.4017429978
 H         -0.5738907239       -4.9010651626        0.1205853143
 H         -0.3224156951       -2.5447331942       -1.8741509771
