  62
        -98.94124135
 C          1.8579382191        0.5957969112        0.0078942583
 C          2.5692793393        0.0849530728        1.1233001989
 C          3.6655629994       -0.8457255375        0.8254514101
 C          3.8854197993       -1.2123735393       -0.4500197894
 C          5.0021907894       -2.1054459898       -0.9050336482
 C          6.2499773492       -1.2891261602       -1.2707215995
 C          6.6546101692       -0.2678594986       -0.2074408610
 H          7.5627158891        0.2258034210       -0.5600381418
 H          5.8798711491        0.4991582414       -0.1368634720
 C          6.9046661095       -0.8649480266        1.1845807298
 H          7.0587012396       -1.9415871867        1.1035248913
 H          7.8234852995       -0.4358239459        1.5896780391
 C          5.7970468895       -0.5871574952        2.2026453995
 H          5.5762618694        0.4832394748        2.2206620880
 H          6.1695380897       -0.8603063238        3.1935085699
 C          4.4831231096       -1.3473177357        1.9823077808
 H          4.6888486097       -2.4144470058        1.8755792523
 H          3.8626648197       -1.2041998545        2.8720058906
 H          7.0756883793       -1.9811364303       -1.4459217986
 H          6.0522423190       -0.7535393515       -2.2021998403
 H          5.2383589895       -2.8156181886       -0.1147609172
 H          4.6663366793       -2.6548082811       -1.7862206874
 O          3.1291956791       -0.7694916408       -1.4850559799
 C          2.1029333890        0.1492132593       -1.2919423011
 O          1.5060946489        0.4617568978       -2.3376278515
 H         -0.5420649606       -0.6981488483        0.5673314304
 C         -1.0490305208       -0.0624204894       -0.1487404904
 C         -0.5131859710        1.1873404002       -0.4387249023
 C         -1.1726030312        1.9925200789       -1.3568995134
 C         -2.3235460312        1.5442500678       -1.9825173426
 C         -2.8436921710        0.2945644082       -1.7043374807
 C         -2.1962073408       -0.5162655204       -0.7798978296
 N         -2.7201918106       -1.7859302601       -0.4835765578
 S         -4.3694978506       -1.9219421499       -0.2413751774
 O         -4.5305762204       -3.0721861787        0.6205460743
 O         -5.0458570307       -1.9898237718       -1.5127479072
 C         -4.8385728007       -0.4279689087        0.6140887005
 C         -4.2594035505       -0.1759755469        1.8421735401
 C         -4.5805113206        0.9957966340        2.5073037885
 C         -5.4713086708        1.8916285531        1.9355375773
 C         -6.0487912809        1.6215029512        0.7048743277
 C         -5.7291373308        0.4518041003        0.0338423494
 H         -6.1522303009        0.2039548889       -0.9259207902
 H         -6.7426379510        2.3189168005        0.2640840068
 H         -5.7164167108        2.8048062538        2.4544593260
 H         -4.1321566005        1.2068931554        3.4649299981
 H         -3.5750479604       -0.8957621762        2.2623565311
 H         -2.2009144305       -2.2939874290        0.2164539529
 H         -3.7272285910       -0.0749055426       -2.1990077601
 H         -2.8186873414        2.1755897567       -2.7043313534
 H         -0.7715934213        2.9609723385       -1.6052785548
 C          0.7470005391        1.5933609514        0.2830250870
 H          0.5593155692        1.4929586430        1.3655437372
 C          1.1400909689        3.0444901511        0.0498815249
 C          2.5681195988        3.4845380515        0.1660781241
 C          1.8888334787        3.4905277995       -1.1688694359
 H          1.6324816385        4.4443130488       -1.6066365772
 H          2.1616238887        2.7384175185       -1.8921285848
 H          2.7780604888        4.4296122422        0.6440696427
 H          3.3122798389        2.7246628218        0.3570127551
 H          0.3959697488        3.7316296416        0.4404687240
 O          2.2946812894        0.3903988045        2.3149894485
