  62
        -98.94240202
 C          1.5415489528        1.3645077292        0.5419663384
 C          1.4063704734        0.2207648440       -0.2846999267
 C          2.2371065240       -0.9329051430        0.0931001902
 C          2.9661950801       -0.8986855985        1.2218346860
 C          3.8401949887       -2.0047298143        1.7476355243
 C          5.2497361322       -2.0245485302        1.1403931464
 C          5.3245912343       -2.4958843966       -0.3124909946
 H          6.3790194068       -2.6657369579       -0.5393064594
 H          4.8130732064       -3.4540587905       -0.4087176087
 C          4.7544183989       -1.5000857167       -1.3323306835
 H          5.4464901040       -1.4029730978       -2.1718512479
 H          4.6734006121       -0.5128326300       -0.8713447889
 C          3.3939220478       -1.8921792782       -1.9089946771
 H          3.4942905358       -2.8146475576       -2.4848636614
 H          3.0728602873       -1.1023332130       -2.5928255789
 C          2.2920267768       -2.0887702504       -0.8587927358
 H          1.3305286313       -2.1316463662       -1.3742718038
 H          2.4503038418       -3.0222008730       -0.3193393035
 H          5.8580903158       -2.6965095560        1.7503179468
 H          5.6796918099       -1.0233308781        1.2218142964
 H          3.3571194518       -2.9675085414        1.5789636629
 H          3.9314264862       -1.8449798128        2.8243249299
 O          2.9703228691        0.1770549913        2.0552996470
 C          2.2899456836        1.3377639354        1.7209951528
 O          2.4098985578        2.2573920843        2.5563895402
 O          0.6459602459        0.1512181313       -1.2818240154
 C          0.8178860379        2.6620076858        0.2258927048
 C         -0.6137749676        2.3732006804       -0.1533770568
 C         -1.1884058057        2.7490742209       -1.3596342722
 C         -2.5092367172        2.4377286861       -1.6329722709
 C         -3.2823928750        1.7495386209       -0.7168467594
 C         -2.7144816661        1.3633230422        0.4908053603
 C         -1.3949302458        1.6829091556        0.7660484651
 H         -0.9525825001        1.3796285079        1.7078905906
 N         -3.4868691952        0.6538024424        1.4309165930
 S         -4.3179072722       -0.6986470450        0.8981428122
 O         -5.4733889893       -0.2795752260        0.1451717153
 O         -4.5856286696       -1.4673018468        2.0935211034
 C         -3.1845389066       -1.5783100483       -0.1590032589
 C         -2.1769390120       -2.3093533363        0.4376630073
 C         -1.2721244367       -2.9832965399       -0.3645631725
 C         -1.3833989053       -2.9052546340       -1.7441635589
 C         -2.3951502336       -2.1603706901       -2.3277777342
 C         -3.3075790877       -1.4893602333       -1.5300693876
 H         -4.1143282924       -0.9087194055       -1.9458212245
 H         -2.4737949814       -2.0976264441       -3.4010755410
 H         -0.6767987758       -3.4297310495       -2.3683988423
 H         -0.4816135918       -3.5605950623        0.0880338783
 H         -2.1262381209       -2.3527992919        1.5143451520
 H         -2.9850233310        0.4391031149        2.2803895338
 H         -4.3122307525        1.5007893861       -0.9152620999
 H         -2.9424158133        2.7329819358       -2.5765136217
 H         -0.5968121602        3.2646491849       -2.0977630653
 H          0.8049378250        3.2216068949        1.1761950708
 C          1.5449457572        3.5392982198       -0.7830930719
 C          3.0364980306        3.4813755609       -0.9210934215
 C          2.1617985219        2.9817308443       -2.0292190756
 H          2.1030474437        3.5658307007       -2.9359705703
 H          2.0882701449        1.9180488181       -2.1892376172
 H          3.5744420155        4.4067766217       -1.0627857908
 H          3.5675708270        2.7583525312       -0.3186071710
 H          1.0970393015        4.5253950094       -0.8583818323
