  62
        -98.93366612
 C         -2.1422204397       -0.3914908898        0.3867556498
 C         -3.2184821598       -0.6799336497       -0.4851896601
 C         -4.2430683699        0.3712313203       -0.6397798697
 C         -4.1113066998        1.5360723002        0.0196853106
 C         -4.9684625299        2.7847598701        0.0190996710
 C         -6.4002700399        2.7508114202       -0.5106909988
 C         -7.3681892998        1.8959998600        0.3062492211
 H         -7.5208718897        2.3737672697        1.2772943813
 H         -8.3293848299        1.8820001701       -0.2122993187
 C         -6.9229841297        0.4585925899        0.5643431207
 H         -6.0254867396        0.4583645698        1.1864897306
 H         -7.7109739196       -0.0368748602        1.1380794707
 C         -6.6606724798       -0.3796770198       -0.6854760995
 H         -6.5201073997       -1.4144319798       -0.3621766398
 H         -7.5346074799       -0.3489044697       -1.3388652894
 C         -5.4200774700        0.0200145005       -1.5039918296
 H         -5.1162776800       -0.8449461594       -2.1002193898
 H         -5.6426821301        0.8304298006       -2.1936908494
 H         -6.4101333901        2.4436415804       -1.5522244389
 H         -6.7650273500        3.7812312302       -0.4810920785
 H         -4.9791733597        3.1345570199        1.0562933011
 H         -4.4060867500        3.5323298503       -0.5515095889
 O         -3.0384827397        1.7824090000        0.8290196405
 C         -2.0529896796        0.8384207500        1.0432268801
 O         -1.1635771695        1.2054313399        1.8394256901
 H          1.5592685204       -0.6197421398        0.8795993192
 C          1.3161704203       -0.9729031996       -0.1114864708
 C          0.0229844403       -1.3856559195       -0.4004355207
 C         -0.2720153799       -1.8175313793       -1.6893500608
 C          0.7090781599       -1.8254986690       -2.6634954309
 C          1.9964368300       -1.4103130290       -2.3734903410
 C          2.3041507501       -0.9844955293       -1.0861313110
 N          3.6209772902       -0.6128552493       -0.7620485111
 S          3.9080748903        0.5929452604        0.3817089092
 O          3.6544246405        0.0603529701        1.6964507791
 O          3.2019153002        1.8031348405        0.0222149295
 C          5.6643350002        0.8057638106        0.1563012690
 C          6.1414217001        1.8915746007       -0.5525368909
 C          7.5090614301        2.0220397808       -0.7387340210
 C          8.3708456702        1.0682995808       -0.2187381814
 C          7.8770233903       -0.0160738994        0.4916164784
 C          6.5114140904       -0.1514283695        0.6828628386
 H          6.0821901205       -0.9709104197        1.2351653985
 H          8.5501395204       -0.7543776595        0.8966206082
 H          9.4343001802        1.1720475008       -0.3656065315
 H          7.8959321599        2.8654353010       -1.2876024809
 H          5.4339957000        2.6112669108       -0.9323180306
 H          4.1931757000       -0.4684740691       -1.5835128911
 H          2.7603710299       -1.4184362088       -3.1362333711
 H          0.4676219798       -2.1563273988       -3.6624105210
 H         -1.2783831999       -2.1297533493       -1.9208805207
 C         -1.0218917396       -1.3737994598        0.6902571394
 H         -0.5386473095       -0.9928238700        1.6010842595
 C         -1.5207061295       -2.7795240199        0.9678818192
 C         -0.6433607393       -3.7156388901        1.7404938989
 C         -1.8872286393       -3.1629084503        2.3681536992
 H         -2.7286807592       -3.8225021003        2.5181941691
 H         -1.7797892692       -2.4102262904        3.1363900093
 H         -0.6285059593       -4.7575035200        1.4600212586
 H          0.3084235407       -3.3373641501        2.0836436688
 H         -2.1185358296       -3.1907576598        0.1657744792
 O         -3.3458839998       -1.7580912095       -1.1229950503
