  62
        -98.94566821
 C         -1.2877221906       -1.6593545197       -0.2479656589
 C         -1.3287868301       -0.4120725300       -0.9204785095
 C         -2.6247966199        0.2821768105       -0.9011669697
 C         -3.6861160601       -0.2780415089       -0.2954643494
 C         -5.0834547998        0.2794892317       -0.2493129796
 C         -5.3229886694        1.3022053223        0.8689471799
 C         -4.6591485289        2.6627447619        0.6548726092
 H         -4.9241881088        3.0457150816       -0.3311778109
 H         -5.0796392486        3.3470891324        1.3944532089
 C         -3.1323369189        2.6461572514        0.8100726992
 H         -2.8247892392        1.7385348416        1.3351225296
 H         -2.8135078586        3.4870544316        1.4304275988
 C         -2.3507447289        2.7381030505       -0.5002206109
 H         -2.5238074286        3.7133451704       -0.9624467414
 H         -1.2891198490        2.6637273903       -0.2498640509
 C         -2.6921789694        1.6448191702       -1.5212807804
 H         -3.6806088594        1.8238859604       -1.9452955004
 H         -1.9525164494        1.6810797895       -2.3248650704
 H         -4.9788110795        0.8755580626        1.8139311301
 H         -6.4020668693        1.4548332827        0.9456679399
 H         -5.3265663797        0.7304382813       -1.2120209298
 H         -5.7492140902       -0.5707359380       -0.0850917092
 O         -3.6102833905       -1.4801873686        0.3351596211
 C         -2.4166940107       -2.1795156890        0.3921369514
 O         -2.4899980811       -3.2550071087        1.0223010219
 H          0.8839937801       -0.0384798203        0.3722612602
 C          1.2880066798       -0.7741806401        1.0471674806
 C          0.8907132193       -2.0986303000        0.9400671512
 C          1.4087854190       -3.0277820198        1.8351337416
 C          2.3073370992       -2.6363155496        2.8115245014
 C          2.7134673897       -1.3178269997        2.9071524207
 C          2.1953407000       -0.3790904400        2.0200438303
 N          2.5948190405        0.9545472799        2.0895037697
 S          2.1269756909        2.1471626496        1.0359445291
 O          2.9623120214        3.2730823195        1.4072127085
 O          0.7064533010        2.3781847902        1.1256323391
 C          2.5817204606        1.6076356487       -0.6008234206
 C          1.8617070008        2.0991764984       -1.6695266408
 C          2.2154716705        1.7135926977       -2.9520197607
 C          3.2779191502        0.8452407772       -3.1425424203
 C          3.9964932701        0.3656310274       -2.0585154801
 C          3.6507714403        0.7517810882       -0.7738650903
 H          4.1904851902        0.3855434184        0.0841263398
 H          4.8209750798       -0.3128871129       -2.2088900899
 H          3.5443740000        0.5373150066       -4.1416310402
 H          1.6521618706        2.0828300875       -3.7939354908
 H          1.0276504710        2.7553861788       -1.4802010211
 H          3.3470616507        1.1955068999        2.7130588395
 H          3.4189320099       -1.0117730596        3.6640791005
 H          2.6999241590       -3.3657539795        3.5035350717
 H          1.0931821786       -4.0584765597        1.7695956321
 C         -0.0445617409       -2.5297761902       -0.1644414085
 H         -0.4056456813       -3.5389251599        0.0777498019
 C          0.7273446990       -2.5958200311       -1.4706414486
 C          1.5790606286       -3.7938347415       -1.7575462980
 C          0.3093280086       -3.5753534714       -2.5234983681
 H          0.3709585587       -3.2748357319       -3.5584115082
 H         -0.5354800916       -4.2127644310       -2.3045772577
 H          1.5959976783       -4.5861386312       -1.0246875477
 H          2.5179685986       -3.6456972721       -2.2677982582
 H          1.0853360394       -1.6293035614       -1.8010369690
 O         -0.3572018700        0.1106777293       -1.5264347498
