  62
        -98.94200807
 C         -0.6733607204       -1.3658490296        0.0172162600
 C         -1.4151058502       -0.7391934891        1.0431597198
 C         -2.4493369197        0.2237388114        0.6203736296
 C         -2.6306266794        0.4585705713       -0.6929419305
 C         -3.6470969189        1.3047762217       -1.4328582507
 C         -4.7530112286        2.0331470124       -0.6745693809
 C         -5.8637002091        1.1205876830       -0.1511211709
 H         -6.4613589892        0.7854355532       -1.0025269909
 H         -6.5152703189        1.7054178134        0.5014135589
 C         -5.3983339698       -0.1261207171        0.5971989393
 H         -4.7733587901       -0.7375069975       -0.0564061306
 H         -6.2833482002       -0.7186157666        0.8445559693
 C         -4.6415527499        0.1388265227        1.8960175093
 H         -4.4743870504       -0.8237260273        2.3873487995
 H         -5.2532361596        0.7511354731        2.5620153892
 C         -3.2734664595        0.8172326020        1.7277195594
 H         -2.7039950997        0.6579124918        2.6487030895
 H         -3.3831340189        1.8910154320        1.5967697093
 H         -5.2106220982        2.7329788225       -1.3787943911
 H         -4.3305249584        2.6288874123        0.1293339191
 H         -4.1040621591        0.6409309919       -2.1743000907
 H         -3.0682721685        2.0384151614       -2.0005915307
 O         -1.8214925896       -0.1007683592       -1.6399564603
 C         -0.8334941701       -1.0160534597       -1.3219026101
 O         -0.1904450702       -1.4376169201       -2.3001927300
 O         -1.2380985905       -0.9862134290        2.2674201199
 C          0.3204094290       -2.4541484800        0.3809996902
 C          1.7113654192       -2.0663172808       -0.0499366597
 C          2.4930762390       -2.8291635313       -0.9072359295
 C          3.7615029692       -2.4035222820       -1.2612603794
 C          4.2745241298       -1.2178157522       -0.7702294695
 C          3.5034601600       -0.4525156717        0.0988399203
 C          2.2341399898       -0.8802582210        0.4524431802
 H          1.6443544700       -0.2885290206        1.1382273201
 N          4.0067887706        0.7429307181        0.6285202402
 S          3.0002995311        1.9684774687        1.1235311900
 O          3.8494046517        3.1421146583        1.1244377999
 O          2.3935037908        1.6436824792        2.3901112699
 C          1.7445345514        2.1695368292       -0.1280731502
 C          2.0695549415        2.0238010989       -1.4616969801
 C          1.0997815217        2.2743950492       -2.4183796903
 C         -0.1643619481        2.6871593699       -2.0298380805
 C         -0.4754792882        2.8316672102       -0.6871932905
 C          0.4844524615        2.5617644099        0.2740658496
 H          0.2773046315        2.6427984301        1.3296839996
 H         -1.4584942681        3.1521897408       -0.3816882907
 H         -0.9095591079        2.8944293902       -2.7817750406
 H          1.3328570218        2.1487986790       -3.4633865102
 H          3.0623126913        1.7145972183       -1.7452574100
 H          4.8677974108        1.0787281377        0.2243588903
 H          5.2630215400       -0.8856612327       -1.0479273494
 H          4.3572404890       -3.0023558924       -1.9330781192
 H          2.1085634285       -3.7532341111       -1.3049062594
 H          0.3101182089       -2.5020501599        1.4800910202
 C         -0.1432657116       -3.7865762799       -0.1705779897
 C          0.2966399677       -5.0631307500        0.4795209406
 C         -1.1212758021       -4.5996230993        0.6211442503
 H         -1.8957279223       -5.1342694789        0.0917798003
 H         -1.4392776420       -4.2034797490        1.5746744803
 H          0.4943471373       -5.9203945302       -0.1459116593
 H          0.9430261376       -4.9868142302        1.3407522206
 H         -0.2640968815       -3.7741153399       -1.2480138997
