  62
        -98.94777154
 C         -0.7807445019       -1.2722614770        0.0227200631
 C         -1.4885711834       -0.6153073299        1.0563217205
 C         -2.4042047729        0.4469731778        0.6253469236
 C         -2.4734058273        0.7804435792       -0.6762246674
 C         -3.3745469568        1.8252343494       -1.2759159681
 C         -4.7947421087        1.3198603887       -1.5683000127
 C         -5.6786669208        1.1108038494       -0.3378158054
 H         -5.6680079324        2.0128710240        0.2746580236
 H         -6.7005310636        0.9741440207       -0.6972867165
 C         -5.2944482654       -0.1016993759        0.5219209025
 H         -6.1941315530       -0.6649325755        0.7801317997
 H         -4.6537698082       -0.7713943913       -0.0564936491
 C         -4.5883385184        0.2467979883        1.8324898415
 H         -5.2692550922        0.8043366214        2.4796082458
 H         -4.3298028468       -0.6856473780        2.3409448238
 C         -3.3012773189        1.0635856368        1.6560287583
 H         -3.5471134736        2.0903303028        1.3863113004
 H         -2.7637686494        1.0669538080        2.6077321538
 H         -4.7251310725        0.3851785450       -2.1293032524
 H         -5.2773547998        2.0584385355       -2.2123751338
 H         -3.4275461077        2.6923007969       -0.6181467186
 H         -2.9161792704        2.1242024821       -2.2202989591
 O         -1.7035694673        0.1874472934       -1.6263779495
 C         -0.8705903290       -0.8757027236       -1.3116173225
 O         -0.2731621184       -1.3666682751       -2.2877496911
 H          1.5240651842       -0.2123609947        0.4728910980
 C          2.0930916586       -1.0081719704        0.0148527696
 C          1.5086267442       -2.2594911170       -0.1336532924
 C          2.2566997415       -3.2778583237       -0.7106912357
 C          3.5511335301       -3.0387560081       -1.1379691821
 C          4.1272990270       -1.7912232097       -0.9914147943
 C          3.3889456185       -0.7657624840       -0.4095512360
 N          3.9331636159        0.5166017196       -0.2803681477
 S          3.3909779222        1.6087439575        0.8513023282
 O          4.4157900381        2.6316384499        0.8696233865
 O          3.1104712306        0.9811879641        2.1217147181
 C          1.9121417633        2.3032780116        0.1474808341
 C          0.7986688788        2.4834426635        0.9425776545
 C         -0.3181382797        3.1005374547        0.4028267122
 C         -0.3031174204        3.5206139244       -0.9176502826
 C          0.8181577971        3.3198360589       -1.7075108511
 C          1.9404824475        2.7104969529       -1.1712827190
 H          2.8326959131        2.5468130572       -1.7524721516
 H          0.8217414289        3.6393742621       -2.7372239593
 H         -1.1702185558        4.0085128212       -1.3332873191
 H         -1.1903851761        3.2493655668        1.0184178359
 H          0.8214151092        2.1313088964        1.9625240706
 H          4.9127398047        0.6113368742       -0.4997872954
 H          5.1358811895       -1.6052659834       -1.3272241567
 H          4.1202959475       -3.8368416322       -1.5899885466
 H          1.8259784201       -4.2583211735       -0.8304868019
 C          0.1003901249       -2.4569328288        0.3685112790
 H          0.1345070432       -2.4879751212        1.4687510111
 C         -0.5429231604       -3.7345871963       -0.1341680951
 C         -0.3677037622       -5.0225080521        0.6119941410
 C         -1.6891657688       -4.3167570343        0.6355047440
 H         -2.5154599733       -4.7449016450        0.0879782176
 H         -1.9831677200       -3.8088616375        1.5426176085
 H         -0.2889233560       -5.9395893253        0.0476976456
 H          0.2315224777       -5.0028995260        1.5098499566
 H         -0.5976782743       -3.7710142979       -1.2168156097
 O         -1.3713817717       -0.9103310753        2.2770607837
