  62
        -98.93296102
 C         -2.4193648197       -1.0415609101        0.3668082508
 C         -2.5984531698        0.1616756704        1.0961822001
 C         -3.8944934998        0.8476385102        0.9564903496
 C         -4.8369354698        0.2983052997        0.1712256699
 C         -6.2087066998        0.8312742594       -0.1390088605
 C         -6.1917341598        1.6720649487       -1.4266084510
 C         -5.8509341799        3.1480089788       -1.2264083719
 H         -5.7486027198        3.5958877682       -2.2174461221
 H         -6.6851643599        3.6445741990       -0.7265723822
 C         -4.5721417599        3.4202311993       -0.4300647120
 H         -3.7829440099        2.7393249292       -0.7550223015
 H         -4.2395933800        4.4333244492       -0.6646969425
 C         -4.7696838300        3.3014134502        1.0885826781
 H         -4.3946637201        4.2047624305        1.5743402376
 H         -5.8358749200        3.2522410503        1.3083671981
 C         -4.0510261500        2.1169061007        1.7493041488
 H         -4.5513608900        1.8776428212        2.6940560389
 H         -3.0280705000        2.4096954809        2.0074892387
 H         -5.4732266897        1.2178037583       -2.1135902707
 H         -7.1756279797        1.6130069383       -1.8961854110
 H         -6.5998344499        1.4008322199        0.6986038891
 H         -6.8474293197       -0.0393914907       -0.3013487901
 O         -4.6263641397       -0.8564381807       -0.5142069195
 C         -3.4298564496       -1.5503132006       -0.4497530290
 O         -3.4179188195       -2.5768759210       -1.1568052384
 O         -1.7060977199        0.6444439909        1.8473581098
 C         -1.0901352697       -1.7528213599        0.5448922113
 C         -0.1126087596       -1.4707894905       -0.5719097588
 C         -0.4369644195       -1.7031747013       -1.9039699287
 C          0.4915888505       -1.4611384918       -2.8999104188
 C          1.7564855305       -0.9954918616       -2.5891819690
 C          2.0971069004       -0.7752490108       -1.2588172891
 C          1.1586721903       -1.0072923302       -0.2630295890
 H          1.4249380903       -0.8103667596        0.7644129909
 N          3.3991912903       -0.3681803605       -0.9247320193
 S          3.7000105202        0.5476328803        0.4574282802
 O          3.5459522302       -0.2939688390        1.6172053107
 O          2.9234632601        1.7673944903        0.4348847194
 C          5.4285515302        0.9048972503        0.2065296801
 C          6.3415298202       -0.1127238095        0.4116232007
 C          7.6867157902        0.1408757004        0.1975781206
 C          8.0950587902        1.4010112002       -0.2145056801
 C          7.1679118901        2.4126629200       -0.4133452707
 C          5.8201337201        2.1650497701       -0.2027508007
 H          5.0642594801        2.9219336000       -0.3382508911
 H          7.4886832701        3.3919915099       -0.7301247313
 H          9.1429098002        1.5963142602       -0.3792162501
 H          8.4107343503       -0.6425226494        0.3534442111
 H          5.9786628503       -1.0724137494        0.7406182013
 H          3.9119617504       -0.0085428709       -1.7183957795
 H          2.4788431405       -0.8102997920       -3.3695455091
 H          0.2260965906       -1.6372631824       -3.9315223187
 H         -1.4203170995       -2.0734238315       -2.1491774586
 H         -0.6619758897       -1.3314242193        1.4654978510
 C         -1.2288585396       -3.2531942698        0.7280024321
 C         -0.1276938796       -4.0033833393        1.4123681526
 C         -1.4445478696       -3.8094266390        2.1015797725
 H         -2.1002831896       -4.6594871390        2.2152010329
 H         -1.4919836697       -3.1080317485        2.9222589520
 H          0.1236234405       -4.9891824295        1.0525497332
 H          0.7197103504       -3.4346078291        1.7662147324
 H         -1.7379988595       -3.7389372503       -0.0942025476
