  62
        -98.94462293
 C         -1.9709891600       -0.7728336690        0.5705129606
 C         -2.0026875295       -0.0895487397       -0.6686741798
 C         -2.1568913694        1.3671097104       -0.5882276706
 C         -2.1884085099        1.9709262610        0.6131430391
 C         -2.3012843699        3.4517535111        0.8573821782
 C         -3.7403605398        3.9853718412        0.8220944574
 C         -4.3768577893        4.0520763505       -0.5667595729
 H         -5.2907166293        4.6417425206       -0.4716878335
 H         -3.7110343490        4.5880992801       -1.2436009729
 C         -4.7316023292        2.6845920402       -1.1669980223
 H         -4.7388593995        1.9308715106       -0.3763465819
 H         -5.7398256790        2.7207599200       -1.5854414127
 C         -3.7943620788        2.2201156095       -2.2818667717
 H         -4.1137259587        1.2269802794       -2.6073413313
 H         -3.8747828384        2.8972228991       -3.1350154921
 C         -2.3194334089        2.1294415697       -1.8681589211
 H         -1.7726487187        1.5876596393       -2.6439054806
 H         -1.8897548489        3.1265877697       -1.7732110914
 H         -3.7222971000        4.9948053514        1.2393486669
 H         -4.3570764701        3.3655565216        1.4769119875
 H         -1.8889391902        3.6329066016        1.8525760383
 H         -1.6917418696        3.9872169307        0.1286436682
 O         -2.1014113703        1.2819431616        1.7836865595
 C         -2.0020156804       -0.1000626284        1.7902256502
 O         -1.9516759709       -0.6069195078        2.9313539905
 H          0.5584995099       -1.1213186390        0.9267713117
 C          0.6158019401       -1.9121732194        0.1914559022
 C         -0.5226022898       -2.6479533295       -0.1137998079
 C         -0.4222502195       -3.6703204400       -1.0478543473
 C          0.7825780807       -3.9195281503       -1.6828191567
 C          1.9015516807       -3.1559989703       -1.4084397367
 C          1.8160583304       -2.1442786798       -0.4573891973
 N          2.9414019403       -1.3680175396       -0.1280763273
 S          2.7075730402        0.2375186706        0.3373791118
 O          2.3584954696        0.2689665614        1.7367332217
 O          1.8002693805        0.9043136402       -0.5695399889
 C          4.3663167203        0.8588980504        0.1255354821
 C          5.2987880499        0.6015576409        1.1129219226
 C          6.5996046500        1.0463164708        0.9386102428
 C          6.9449884204        1.7364910001       -0.2140039074
 C          5.9980880508        1.9893174797       -1.1950520879
 C          4.6953791207        1.5456999198       -1.0276318181
 H          3.9232680010        1.7242116595       -1.7589133585
 H          6.2682882012        2.5290071092       -2.0883217481
 H          7.9578457205        2.0821989400       -0.3470709972
 H          7.3373439597        0.8537638211        1.7006806932
 H          4.9797002795        0.0696956314        1.9940616327
 H          3.6858439105       -1.4509143800       -0.8073150469
 H          2.8334758308       -3.3374210606       -1.9218249263
 H          0.8457712210       -4.7104384507       -2.4147564663
 H         -1.2898131894       -4.2618066800       -1.2902369373
 C         -1.8052468501       -2.2817641590        0.5938547014
 H         -1.7050475105       -2.5619927085        1.6532811216
 C         -3.0316385599       -2.9593839093        0.0191972613
 C         -3.4289549701       -4.3265506390        0.4863908519
 C         -4.2370940202       -3.1317230588        0.8919050110
 H         -5.2144402100       -2.9943273589        0.4543251205
 H         -4.1620858706       -2.7819103782        1.9115937708
 H         -3.8565720299       -5.0121718694       -0.2294394279
 H         -2.8113115904       -4.7969063086        1.2364783624
 H         -3.1983142895       -2.7010366598       -1.0202262289
 O         -1.9136379991       -0.6656136303       -1.7847734695
