  62
        -98.94436218
 C          1.6075027516        1.3817405560        0.5394788621
 C          1.6080208443        0.0726596894        1.0860908331
 C          2.7442912406       -0.7783136481        0.7188458220
 C          3.7099485854       -0.2915018717       -0.0815412898
 C          4.9515018082       -1.0217594342       -0.5171026184
 C          4.7506218919       -1.9203478228       -1.7449493853
 C          3.9457902671       -3.1952475060       -1.4906714512
 H          4.0632191093       -3.8289146271       -2.3719574720
 H          4.3759757544       -3.7316498808       -0.6444108474
 C          2.4485395199       -2.9587970380       -1.2470039964
 H          2.1754587239       -1.9594413106       -1.5943785606
 H          1.8672173102       -3.6702775576       -1.8372952148
 C          2.0092988299       -3.1141511118        0.2088682796
 H          0.9431004951       -2.8835769465        0.2685791758
 H          2.1518189155       -4.1497655155        0.5241810031
 C          2.7447348213       -2.1988023793        1.1963435839
 H          2.2145562446       -2.2283812809        2.1510532339
 H          3.7652708145       -2.5488631693        1.3498589428
 H          4.2677370464       -1.3345736244       -2.5306423196
 H          5.7415849394       -2.2060807305       -2.1054453823
 H          5.6894039060       -0.2566742134       -0.7680252705
 H          5.3360204338       -1.6166320634        0.3117691470
 O          3.6729743277        0.9692522499       -0.5864468669
 C          2.6080467393        1.8222702013       -0.3269383461
 O          2.6913218638        2.9189552085       -0.9117505791
 O          0.7057180754       -0.3596732010        1.8508403588
 C          0.4222618757        2.2768435599        0.8639622515
 C         -0.5042046046        2.2694110120       -0.3272239858
 C         -0.5040743406        3.2641513813       -1.2971323706
 C         -1.3463871390        3.1688063158       -2.3909036403
 C         -2.2142610857        2.1002386219       -2.5268266038
 C         -2.2208318852        1.0990565050       -1.5617301408
 C         -1.3596875913        1.1848485348       -0.4797072610
 H         -1.3519472962        0.3982409999        0.2602961546
 N         -3.0828345712       -0.0034901992       -1.6659566426
 S         -3.8892162724       -0.5418613418       -0.2968076392
 O         -5.0787457064       -1.1868990333       -0.8140048107
 O         -4.1100860726        0.5350891341        0.6399571570
 C         -2.8350340022       -1.7880770511        0.4092209812
 C         -2.4169074731       -1.6747343237        1.7191104323
 C         -1.6339188394       -2.6802023078        2.2628086979
 C         -1.2899521413       -3.7779995775        1.4908395294
 C         -1.7192451009       -3.8782527840        0.1751292813
 C         -2.4997826061       -2.8751142419       -0.3742295503
 H         -2.8578580888       -2.9181194165       -1.3894981197
 H         -1.4435959539       -4.7329584855       -0.4216891224
 H         -0.6788638050       -4.5585632927        1.9161479655
 H         -1.2887192783       -2.5946505499        3.2802396477
 H         -2.7017264086       -0.8022979762        2.2856950082
 H         -3.6972495116        0.0172628144       -2.4672215035
 H         -2.8807225961        2.0372714952       -3.3739993622
 H         -1.3346551218        3.9436572162       -3.1427495933
 H          0.1705722733        4.0992991554       -1.2041725209
 H         -0.1004625517        1.7746237006        1.6900494671
 C          0.8231995265        3.6628191518        1.3193676760
 C         -0.2053075161        4.5342986762        1.9742338652
 C          0.9116674871        3.9530339502        2.7864545011
 H          1.6933395810        4.6116197119        3.1343507882
 H          0.6803996905        3.1503130866        3.4714083338
 H         -0.1935830489        5.5931957677        1.7659993470
 H         -1.1957193211        4.1229420669        2.1027921511
 H          1.5549452303        4.1364401609        0.6775217313
