  62
        -98.94366066
 C         -1.7792136183       -0.5115530073        0.4477193227
 C         -2.9563823850       -0.5052994425        1.2327662443
 C         -4.2124775436       -0.7022531049        0.5009099846
 C         -4.1857491699       -0.8939367016       -0.8308084494
 C         -5.3811052885       -1.1295302560       -1.7139779623
 C         -6.0882137529        0.1566738705       -2.1629636040
 C         -6.8909668589        0.8715183516       -1.0752413986
 H         -7.5040001614        1.6258134653       -1.5726397937
 H         -7.5697432951        0.1623173821       -0.6005024621
 C         -6.0330065425        1.5608343518       -0.0050355568
 H         -5.0103456215        1.6707899912       -0.3736213109
 H         -6.4166404333        2.5672610247        0.1773563303
 C         -5.9988494734        0.8383170770        1.3418374582
 H         -6.9979361083        0.8384754478        1.7832746191
 H         -5.3355255997        1.3919596262        2.0115514450
 C         -5.4965482253       -0.6097068847        1.2687270219
 H         -5.3013353259       -0.9565792633        2.2864582401
 H         -6.2564467604       -1.2494680350        0.8207021665
 H         -5.3415946462        0.8403563525       -2.5735941523
 H         -6.7723568176       -0.1126027101       -2.9709520066
 H         -5.0133186927       -1.6476122706       -2.6021937693
 H         -6.0929996355       -1.7781594785       -1.2028334567
 O         -3.0298632190       -0.9144070107       -1.5461755046
 C         -1.8026057722       -0.7023336332       -0.9339888890
 O         -0.8314045024       -0.7137892880       -1.7128416783
 H          2.1746977947        0.0422175182        0.3151758143
 C          1.5782706773        0.9300939172        0.1913848581
 C          0.2411445592        0.9289945139        0.5545675588
 C         -0.4934739067        2.1016829614        0.3938814686
 C          0.0908212043        3.2352646808       -0.1349098602
 C          1.4255309181        3.2301104703       -0.5015000189
 C          2.1715762892        2.0708204324       -0.3336493916
 N          3.5195781518        2.0269903215       -0.7138030720
 S          4.6318533964        1.1660208354        0.1869502542
 O          4.3345355873        1.2224418952        1.5992336884
 O          5.9147709113        1.7075548059       -0.2095321216
 C          4.5110029974       -0.5103488761       -0.4001442803
 C          4.2695227867       -0.7430830650       -1.7393382536
 C          4.2165105224       -2.0520613291       -2.1909800239
 C          4.4128029552       -3.0998228850       -1.3042464961
 C          4.6612557936       -2.8492491229        0.0362649345
 C          4.7116196633       -1.5423395057        0.4953195031
 H          4.8905683588       -1.3016262782        1.5313173544
 H          4.8134853534       -3.6655898723        0.7246015162
 H          4.3698602561       -4.1174002732       -1.6594859719
 H          4.0188362084       -2.2506432249       -3.2320703623
 H          4.1148414556        0.0921553489       -2.4017184713
 H          3.8997917121        2.8959969125       -1.0584695507
 H          1.8841297091        4.1148454006       -0.9164934779
 H         -0.4945629442        4.1341058581       -0.2591431684
 H         -1.5351699621        2.1092115633        0.6853257311
 C         -0.4407322089       -0.2890935677        1.1266502706
 H         -0.6777523339       -0.0818847135        2.1814200378
 C          0.4002761333       -1.5462840917        1.0555767563
 C          1.4131876796       -1.8418340819        2.1197323259
 C          0.1484480219       -2.6418965237        2.0460806644
 H          0.2044491730       -3.6655396263        1.7080193101
 H         -0.6130582148       -2.4691305409        2.7925858490
 H          2.3375615969       -2.3172311024        1.8287061908
 H          1.5213813730       -1.1260190669        2.9208864013
 H          0.6302382819       -1.8351387699        0.0358316874
 O         -2.9572062588       -0.3400365267        2.4825865117
