  62
        -98.94480175
 C          1.9932864357        1.3603232671        0.3027000401
 C          2.6506663767        0.7746331011       -0.8064245344
 C          3.8207574693       -0.0531846817       -0.4861942480
 C          4.2057978328       -0.2050706316        0.7939426023
 C          5.3940829038       -0.9935568646        1.2741423197
 C          5.1231652768       -2.4951768867        1.4400842034
 C          4.9820640471       -3.2791961157        0.1346810771
 H          5.8412287710       -3.0754086883       -0.5050343343
 H          5.0124114675       -4.3396924057        0.3926612113
 C          3.6851305122       -2.9963166788       -0.6368552208
 H          3.2392029828       -3.9397395115       -0.9601957963
 H          2.9627548080       -2.5150821110        0.0269549954
 C          3.8644615767       -2.1293299051       -1.8832919448
 H          2.8793710580       -1.9587212789       -2.3257570861
 H          4.4747780126       -2.6629954836       -2.6152224831
 C          4.5068086273       -0.7620970575       -1.6143588695
 H          5.5693301517       -0.8800221720       -1.4028513546
 H          4.3924598382       -0.1484104667       -2.5111523419
 H          5.9588181639       -2.9167807047        2.0033906901
 H          4.2197895962       -2.6236201854        2.0411154106
 H          6.2307842274       -0.8472266997        0.5906173989
 H          5.6655868209       -0.5836162726        2.2493808451
 O          3.5442920141        0.3744328210        1.8315097940
 C          2.4126189224        1.1452587173        1.6147524564
 O          1.8749280680        1.5737649489        2.6570802026
 O          2.2854784202        0.9342569806       -1.9992018889
 C          0.7642924033        2.2244694549        0.0835659242
 C         -0.3134184797        1.4172036899       -0.5995520592
 C         -1.0183087757        1.8594565433       -1.7105046562
 C         -1.9897958158        1.0594171339       -2.2886579083
 C         -2.2874903948       -0.1858703143       -1.7683684214
 C         -1.6037886431       -0.6282171165       -0.6420616075
 C         -0.6322352393        0.1741348823       -0.0651777371
 H         -0.0982148038       -0.1730641179        0.8114292311
 N         -1.9174559091       -1.8815562662       -0.0890477066
 S         -3.5367746547       -2.2681045352        0.0889113543
 O         -3.5880176450       -3.1773735858        1.2124513134
 O         -4.0521161890       -2.7798572368       -1.1565024334
 C         -4.3472304156       -0.7291286870        0.4879360981
 C         -3.9428886279       -0.0554344683        1.6235280443
 C         -4.5373410714        1.1575012511        1.9306243599
 C         -5.5217155214        1.6733729081        1.1013095018
 C         -5.9211829425        0.9818781145       -0.0315196097
 C         -5.3280149982       -0.2306311067       -0.3450055995
 H         -5.6051199123       -0.7994950301       -1.2175115121
 H         -6.6884670265        1.3843408064       -0.6729088202
 H         -5.9794752212        2.6198303866        1.3419148794
 H         -4.2268725714        1.6960065246        2.8117689243
 H         -3.1774869354       -0.4838654634        2.2512104239
 H         -1.3932946142       -2.1066155499        0.7432756164
 H         -3.0281363588       -0.8271847023       -2.2179091893
 H         -2.5200950100        1.4099993609       -3.1606522978
 H         -0.7999949858        2.8260903693       -2.1327973973
 H          0.4009458023        2.4949552981        1.0858173043
 C          1.1390120144        3.4911326093       -0.6565329044
 C          0.3426980827        4.7444701241       -0.4564196435
 C          1.7219069657        4.6330538614        0.1185770533
 H          2.5186043413        5.2074856442       -0.3297348866
 H          1.8254282366        4.5054550654        1.1866271876
 H          0.1935287262        5.4011646675       -1.3000876926
 H         -0.4938119009        4.7021534986        0.2243950304
 H          1.5498179257        3.2930254554       -1.6396069495
