  62
        -98.94892331
 C         -1.3308782604       -1.5122174000        0.2127770570
 C         -0.6705483732       -2.4879205257       -0.5683105391
 C          0.6929158968       -2.8337492506       -0.1464191444
 C          1.2279576585       -2.2174122979        0.9232127029
 C          2.6075624669       -2.4718625569        1.4568505625
 C          3.6390674597       -1.5089513402        0.8560878049
 C          3.5794365219       -1.4001322847       -0.6676749249
 H          2.6469769168       -0.9121046607       -0.9642035809
 H          4.3902304920       -0.7357468030       -0.9773805504
 C          3.7151131618       -2.7384496638       -1.4076752108
 H          4.1657696040       -3.4828063477       -0.7495132147
 H          4.3918741571       -2.5995279563       -2.2536047114
 C          2.4055301013       -3.2884920207       -1.9760493727
 H          1.8942279719       -2.4992393736       -2.5344127219
 H          2.6498946679       -4.0856079158       -2.6838681884
 C          1.4234941198       -3.8707429595       -0.9512414827
 H          0.6538475094       -4.4196327312       -1.5021277130
 H          1.9457028194       -4.5738493446       -0.2986727045
 H          4.6346253309       -1.8410056678        1.1573996975
 H          3.4655950513       -0.5152988998        1.2732439549
 H          2.5843222435       -2.3314600459        2.5389809462
 H          2.8864236402       -3.5014772261        1.2399776370
 O          0.5690604835       -1.2725096426        1.6413123678
 C         -0.7189169252       -0.8869568903        1.2993276411
 O         -1.2009979346       -0.0013901530        2.0291314710
 H         -0.7824875981        0.4228568865       -1.2260785696
 C         -1.6430635941        1.0222567591       -0.9724032694
 C         -2.7646608359        0.4158240283       -0.4241932574
 C         -3.8685705003        1.2078538940       -0.1309686754
 C         -3.8311713998        2.5724458295       -0.3611973600
 C         -2.6929512321        3.1790908508       -0.8608325418
 C         -1.5847016525        2.3931518275       -1.1615192503
 N         -0.4051318045        2.9735532143       -1.6537072378
 S          1.1166197054        2.3688832960       -1.3645014698
 O          1.9999343327        3.3593411574       -1.9444259976
 O          1.2457876574        1.0354674048       -1.9004124306
 C          1.4236851576        2.3309900002        0.3973521133
 C          0.4484866958        2.5495535148        1.3472684828
 C          0.8008987005        2.5041073685        2.6883103974
 C          2.1110454465        2.2511483831        3.0568254299
 C          3.0835385272        2.0440771218        2.0900959489
 C          2.7367617450        2.0819084982        0.7501531684
 H          3.4575667021        1.9231758085       -0.0365785476
 H          4.1057658126        1.8511506872        2.3756110078
 H          2.3759198338        2.2127025043        4.1017792471
 H          0.0381503783        2.6522907458        3.4351698003
 H         -0.5751700398        2.7258296573        1.0614280140
 H         -0.3980939822        3.9820742821       -1.6857182073
 H         -2.6551609727        4.2469327912       -1.0127354260
 H         -4.6952153293        3.1766051872       -0.1302601876
 H         -4.7553450485        0.7575505197        0.2841572514
 C         -2.7293537605       -1.0728132716       -0.1773015069
 H         -2.9472435172       -1.5878892715       -1.1255217651
 C         -3.7355901890       -1.5218242963        0.8638480783
 C         -5.1237900507       -1.9199997525        0.4625436698
 C         -4.1418133290       -2.9636653383        0.8997615515
 H         -4.2806297372       -3.4376673696        1.8597395632
 H         -3.7161607274       -3.6142333397        0.1495269463
 H         -5.9412396919       -1.6797138858        1.1256696386
 H         -5.3756815839       -1.8733503311       -0.5862909579
 H         -3.6002293591       -1.0159756263        1.8132946566
 O         -1.2012201998       -3.0505141814       -1.5658495443
