  62
        -98.94452946
 C         -1.1671015106       -1.8509032006       -0.5326061438
 C         -1.3247928951       -0.6245541592       -1.2273418206
 C         -2.6415859246        0.0236646519       -1.0900672911
 C         -3.5960339424       -0.5539600228       -0.3410700999
 C         -4.9637624606        0.0138937236       -0.0960763081
 C         -4.9962780156        0.8826589083        1.1681446406
 C         -3.8823865445        1.9279688535        1.2332639503
 H         -4.0388293991        2.5145331752        2.1416543163
 H         -2.9162961983        1.4287040230        1.3434168112
 C         -3.8201678295        2.8695348457        0.0228855487
 H         -4.7674147029        2.8465331993       -0.5183264971
 H         -3.6747993090        3.8900472175        0.3837577477
 C         -2.6695266071        2.5714674827       -0.9402462825
 H         -1.7451517918        2.4728842163       -0.3645123175
 H         -2.5547754423        3.4293654625       -1.6094925469
 C         -2.8424764219        1.3237107013       -1.8166856291
 H         -3.8218443381        1.3483177034       -2.3002891023
 H         -2.0738093647        1.3521387059       -2.5949093844
 H         -5.9662430928        1.3815389099        1.2177501053
 H         -4.9042677690        0.2307966427        2.0400716899
 H         -5.2661108342        0.6020588255       -0.9605455615
 H         -5.6608340284       -0.8169093172        0.0284719858
 O         -3.4086235749       -1.7298435494        0.3124804613
 C         -2.1930721809       -2.3897357229        0.2468925827
 O         -2.1520871773       -3.4487824873        0.9073368421
 H          0.5922675728       -0.1468185769        0.3860478030
 C          1.1404757735       -0.8872753272        0.9451124463
 C          1.0103867082       -2.2292718677        0.6192970743
 C          1.7095743019       -3.1695491265        1.3677205481
 C          2.5234985568       -2.7695398921        2.4127898363
 C          2.6521409466       -1.4304768135        2.7340804174
 C          1.9446551396       -0.4828740722        2.0008885494
 N          2.0248089431        0.8723387465        2.3240358652
 S          1.5002462470        2.0905876463        1.3219636889
 O          2.0428764117        3.2887044722        1.9309765399
 O          0.0652349635        2.0555120669        1.1923618417
 C          2.2973474438        1.8324766518       -0.2511530415
 C          1.6035191444        2.1022821624       -1.4117397902
 C          2.2459862603        1.9426589280       -2.6290045823
 C          3.5645883382        1.5199340669       -2.6641236263
 C          4.2509202856        1.2575003786       -1.4881458930
 C          3.6147789556        1.4175163927       -0.2683844615
 H          4.1251056913        1.2216243629        0.6607051808
 H          5.2761558328        0.9253117098       -1.5186250916
 H          4.0606447346        1.3919717060       -3.6134022663
 H          1.7068333795        2.1395306998       -3.5413457342
 H          0.5725375326        2.4092561629       -1.3497204799
 H          2.7179515462        1.1501137996        2.9997340221
 H          3.2794563396       -1.1184436688        3.5546341887
 H          3.0611683963       -3.5083864511        2.9872120651
 H          1.5959605783       -4.2189117365        1.1388518216
 C          0.1264959868       -2.6494678918       -0.5282070663
 H         -0.1748867119       -3.6934525320       -0.3433163813
 C          0.8567785862       -2.6178012793       -1.8641449080
 C          2.0888550358       -1.8046652565       -2.1056655741
 C          2.1858018784       -3.2963678991       -2.0205754354
 H          2.3726971251       -3.8561588597       -2.9243500622
 H          2.6402441562       -3.7171637157       -1.1368764258
 H          2.4753172193       -1.2156244289       -1.2885758256
 H          2.1900880778       -1.3237599202       -3.0658812197
 H          0.1668028007       -2.7031571080       -2.6972286415
 O         -0.4389405533       -0.0881984043       -1.9380004235
