  62
        -98.93930599
 C          0.7237002082        1.3082012796        0.3045839884
 C          1.5084326884        0.5742417201        1.2254924033
 C          2.4874287921       -0.3800254708        0.6695815271
 C          2.5540641177       -0.5299927498       -0.6662660570
 C          3.5352267401       -1.3420967516       -1.4699026742
 C          4.9301827864       -0.6981048972       -1.5244477151
 C          5.4559668260       -0.1800606987       -0.1886624159
 H          6.4048610665        0.3279178227       -0.3801248269
 H          4.7642686719        0.5668856241        0.2051192269
 C          5.7044337335       -1.2496999379        0.8722448354
 H          6.4126546237       -1.9844527611        0.4830555961
 H          6.1753186527       -0.7557456921        1.7260353577
 C          4.4631570231       -1.9881443101        1.3788183564
 H          4.7466902054       -2.5118828797        2.2964672167
 H          4.1456144189       -2.7522030930        0.6743053685
 C          3.2901505286       -1.0815729791        1.7383470331
 H          3.6369818762       -0.3007956106        2.4250076103
 H          2.5607017769       -1.6640575157        2.3153491316
 H          4.8857386230        0.1483977043       -2.2139974702
 H          5.6300622841       -1.4290243564       -1.9330611179
 H          3.5964623263       -2.3558014110       -1.0859701873
 H          3.1410692777       -1.3901167575       -2.4867740011
 O          1.7053989318        0.1217942049       -1.5084253645
 C          0.7611227167        1.0301891425       -1.0623534948
 O          0.0459912195        1.4981875411       -1.9659549454
 O          1.4157791018        0.7208397832        2.4752046046
 C         -0.2266230943        2.3542846869        0.8580497978
 C         -1.5974952602        2.1798394885        0.2592815269
 C         -2.2035466501        3.1135710950       -0.5704595086
 C         -3.4555908540        2.8633909085       -1.1034240894
 C         -4.1227060353        1.6845503495       -0.8269920448
 C         -3.5259337986        0.7461506141        0.0083892710
 C         -2.2774071790        1.0033453894        0.5498519954
 H         -1.8227748369        0.2777618653        1.2093975395
 N         -4.1836628716       -0.4512034314        0.3177820200
 S         -3.3634617846       -1.7983510316        0.8359946344
 O         -4.2944081959       -2.8848332389        0.6109152850
 O         -2.9303260901       -1.6267415934        2.2009249970
 C         -1.9508826483       -2.0257511154       -0.2303225050
 C         -0.7792480309       -2.4932368346        0.3291283617
 C          0.2910529565       -2.7890142368       -0.4984355808
 C          0.1749172056       -2.6024520656       -1.8667279962
 C         -1.0004477069       -2.1120431247       -2.4121014892
 C         -2.0786797876       -1.8279580947       -1.5901328523
 H         -3.0054368315       -1.4556031177       -1.9951461223
 H         -1.0802572448       -1.9504056415       -3.4749525903
 H          1.0066584705       -2.8370425373       -2.5115278989
 H          1.2076999289       -3.1622025642       -0.0706400572
 H         -0.7264175237       -2.6127689833        1.4001642492
 H         -5.0010189872       -0.6662496913       -0.2321350340
 H         -5.0953506376        1.4873552175       -1.2507099462
 H         -3.9146789834        3.5929821059       -1.7530358955
 H         -1.6849731328        4.0242311671       -0.8202493388
 H         -0.2971413395        2.1185587121        1.9334393576
 C          0.2974475210        3.7795406973        0.7582812746
 C          1.7672126109        4.0643142674        0.8285787940
 C          1.0207202077        4.2915063522       -0.4498950457
 H          0.8391677220        5.3100419960       -0.7606355720
 H          1.1774605532        3.6068484323       -1.2684517149
 H          2.0986077092        4.9222418987        1.3941143348
 H          2.4365766542        3.2181891131        0.8868430469
 H         -0.3520278860        4.4829784438        1.2706467831
