  62
        -98.94583116
 C         -2.4759266162       -1.1080608977       -0.0593332120
 C         -3.0595410211       -0.1966863718        0.8525885365
 C         -3.5073763364        1.0799111246        0.2876711026
 C         -3.3488546764        1.3193388970       -1.0269514737
 C         -3.7576090029        2.5720709430       -1.7528796773
 C         -2.7141901721        3.6955286444       -1.6791388670
 C         -2.5984836612        4.3862997817       -0.3197416699
 H         -1.9969900904        5.2853201700       -0.4675115173
 H         -3.5875485023        4.7047574540        0.0115530378
 C         -1.9396375592        3.5300303298        0.7712496948
 H         -1.3950520918        2.7026957307        0.3067559179
 H         -1.1972719320        4.1280942447        1.3059764225
 C         -2.9126256739        2.9740729768        1.8121306376
 H         -2.3460200008        2.3561677821        2.5140327738
 H         -3.3553133703        3.7994712688        2.3740272596
 C         -4.0436187041        2.1159032040        1.2291255137
 H         -4.7738335682        2.7483009730        0.7255028416
 H         -4.5372530701        1.5949692376        2.0531846362
 H         -1.7400016749        3.2881053319       -1.9619366710
 H         -2.9895945738        4.4472118089       -2.4225014583
 H         -4.7101399652        2.9307492360       -1.3622386387
 H         -3.8910752449        2.2951212928       -2.8006874520
 O         -2.7912933213        0.4145920730       -1.8731823301
 C         -2.3001037433       -0.7975362051       -1.4084072446
 O         -1.7560335924       -1.4962761712       -2.2833765327
 O         -3.1896841253       -0.4349696700        2.0848114675
 C         -1.9105084998       -2.4131944703        0.4770820030
 C         -0.4064057111       -2.3359461540        0.3805608507
 C          0.3788356360       -3.2322222253       -0.3304376702
 C          1.7475843082       -3.0413786080       -0.4240254549
 C          2.3595010112       -1.9608405876        0.1847103951
 C          1.5827279184       -1.0642335274        0.9073480977
 C          0.2172070970       -1.2622943713        1.0066794859
 H         -0.3866431099       -0.5556465478        1.5639660091
 N          2.1980281642        0.0573958992        1.5148256852
 S          2.6857519722        1.2383221164        0.4130441460
 O          2.7920328334        2.4604218651        1.1807733942
 O          1.8108573842        1.2791962355       -0.7380866682
 C          4.3129309521        0.6990200322       -0.0622436202
 C          5.2938842312        0.6656999828        0.9099946961
 C          6.5641584028        0.2345923640        0.5630307890
 C          6.8300357868       -0.1515099044       -0.7426133435
 C          5.8345182110       -0.1097692655       -1.7069473824
 C          4.5607429171        0.3190343837       -1.3662503551
 H          3.7522383173        0.3609985499       -2.0787745886
 H          6.0426071587       -0.4109836785       -2.7210449871
 H          7.8191425342       -0.4878240283       -1.0106824076
 H          7.3409343860        0.1998269738        1.3097344375
 H          5.0427215590        0.9791222245        1.9094955006
 H          1.6010596606        0.4950955973        2.2043135586
 H          3.4234805959       -1.8066429769        0.1077115387
 H          2.3452099179       -3.7423708180       -0.9863087528
 H         -0.0825884256       -4.0707555627       -0.8251890567
 H         -2.1839645503       -2.4322020860        1.5423742953
 C         -2.5173533562       -3.6176132307       -0.2060795078
 C         -2.5019501701       -4.9488778570        0.4824198682
 C         -3.7888875686       -4.1957916494        0.3361295316
 H         -4.5264179230       -4.5614337565       -0.3622874200
 H         -4.2131775704       -3.7298571523        1.2135957520
 H         -2.3576391255       -5.8363912066       -0.1145056342
 H         -2.0524644458       -4.9979781186        1.4625988481
 H         -2.3991168997       -3.5939416080       -1.2828439428
