  62
        -98.94329337
 C          2.5104571911        1.0331923017       -0.1537615128
 C          3.6569145196        0.8831768557        0.6632165871
 C          4.7002570946       -0.0068449408        0.1429197459
 C          4.5324113129       -0.6052334058       -1.0506083368
 C          5.5155266802       -1.5229644292       -1.7254996287
 C          5.4296479102       -2.9824027023       -1.2580143852
 C          5.9747431563       -3.2493225636        0.1455790227
 H          6.0538161113       -4.3324836914        0.2575804397
 H          6.9819969707       -2.8396167993        0.2272455033
 C          5.0993001300       -2.6990189520        1.2801524733
 H          4.1001688568       -2.4804716018        0.8959472004
 H          4.9843140967       -3.4612955446        2.0540649307
 C          5.6541251681       -1.4461799727        1.9581214923
 H          6.5935031127       -1.6867569377        2.4608369702
 H          4.9390917554       -1.1225602438        2.7189142205
 C          5.8978534938       -0.2680772418        1.0057944746
 H          6.0764277223        0.6271708307        1.6065239137
 H          6.7770478759       -0.4573178142        0.3903844008
 H          4.3874152560       -3.3052668118       -1.3118163502
 H          6.0015394502       -3.5854329482       -1.9670259167
 H          5.2883325228       -1.4898976205       -2.7931644757
 H          6.5288679422       -1.1500236864       -1.5741146613
 O          3.4217617259       -0.4220807264       -1.8129581255
 C          2.3769965643        0.3819134819       -1.3798819733
 O          1.4140579874        0.4378881439       -2.1678744919
 H         -1.0921205092        2.1888532418       -0.8823665672
 C         -1.0462774601        1.3654565776       -0.1869158526
 C          0.1273310496        1.1042271253        0.5003992764
 C          0.1500210948        0.0346873899        1.3928225947
 C         -0.9669468984       -0.7556233967        1.5787212583
 C         -2.1330204934       -0.5007492935        0.8769286532
 C         -2.1699935829        0.5663470747       -0.0085942458
 N         -3.3432239604        0.8234486349       -0.7343458370
 S         -4.8181257920        0.8281677509        0.0599426895
 O         -5.6829041883        1.6499139494       -0.7584070398
 O         -4.6748028715        1.2258288235        1.4412510886
 C         -5.3678706463       -0.8626814460       -0.0354740607
 C         -5.7446190565       -1.5298422020        1.1135809297
 C         -6.1836811475       -2.8409861137        1.0142584160
 C         -6.2391025677       -3.4578677798       -0.2260824096
 C         -5.8596021594       -2.7730430644       -1.3710110696
 C         -5.4205959931       -1.4620330394       -1.2785881348
 H         -5.1190153511       -0.8963781445       -2.1444186414
 H         -5.9035838957       -3.2561633464       -2.3338788519
 H         -6.5803799792       -4.4782714663       -0.3014583777
 H         -6.4794309695       -3.3749625584        1.9030507247
 H         -5.6798945367       -1.0117545683        2.0572232350
 H         -3.2686598055        1.5942908703       -1.3815602096
 H         -3.0070864522       -1.1163551432        1.0128672284
 H         -0.9315899492       -1.5812010250        2.2734172010
 H          1.0619354943       -0.1672352718        1.9383448154
 C          1.3809929931        1.9256619226        0.3294579048
 H          1.6940477632        2.2775994777        1.3233706934
 C          1.2190016658        3.1247120140       -0.5798895365
 C          0.5723000743        4.3742823196       -0.0631703399
 C          2.0476438319        4.3462984437       -0.3244336744
 H          2.4327617349        4.8942248117       -1.1712864761
 H          2.7181673402        4.3237363957        0.5220380341
 H          0.2377123804        4.3751491488        0.9633479387
 H         -0.0554399710        4.9463351268       -0.7299909748
 H          1.0472226683        2.8479313125       -1.6141077491
 O          3.8003567030        1.4650321716        1.7718675228
