  62
        -98.93808065
 C         -2.5243174241       -1.1935934712        0.2392824860
 C         -2.6925457877       -0.3466835873       -0.8796368243
 C         -3.5512279561        0.8408540413       -0.6904022853
 C         -4.1119471908        1.0505332453        0.5152205682
 C         -4.9741352207        2.2049127430        0.9517801270
 C         -4.1603490297        3.4832897759        1.2131535820
 C         -3.0905745216        3.7908910538        0.1681526493
 H         -2.4040811905        2.9447773153        0.0968428552
 H         -2.5124815504        4.6465744305        0.5273819740
 C         -3.6188119220        4.1345134800       -1.2226169113
 H         -2.7575947948        4.4061595998       -1.8382414280
 H         -4.2664779531        5.0112364525       -1.1520772350
 C         -4.3846974292        3.0220408321       -1.9413255193
 H         -4.4880244418        3.3229827447       -2.9879185244
 H         -5.3929316806        2.9241916887       -1.5480489907
 C         -3.6857899991        1.6658678104       -1.9476238662
 H         -2.6677023394        1.7880517725       -2.3345742223
 H         -4.1925130306        1.0171141970       -2.6722829901
 H         -3.6596264025        3.3724853768        2.1783797314
 H         -4.8521616463        4.3238459400        1.2876395911
 H         -5.4550252986        1.9027153130        1.8847588527
 H         -5.7556660085        2.3845875408        0.2197403304
 O         -3.9104987677        0.2086501322        1.5708939686
 C         -3.1187838434       -0.9181137262        1.4685225747
 O         -3.0164636354       -1.5790974732        2.5236186895
 O         -2.1453719333       -0.5593043543       -1.9927975056
 C         -1.6487955985       -2.4275545210        0.1297187522
 C         -0.2411633783       -2.0408957813       -0.2580861741
 C          0.5132226737       -2.7460483545       -1.1864551462
 C          1.8065281357       -2.3516859345       -1.4838737383
 C          2.3750030989       -1.2528233026       -0.8671102472
 C          1.6348517005       -0.5479492588        0.0733117956
 C          0.3432998534       -0.9506121779        0.3748794514
 H         -0.2297340583       -0.4024166537        1.1141510559
 N          2.2001683337        0.5775801126        0.7007713042
 S          3.6912208935        0.3871598611        1.4523098030
 O          3.8790926740       -0.9681558567        1.9162974430
 O          3.7420616854        1.4246422523        2.4594431236
 C          4.8677611133        0.7639255165        0.1706669863
 C          5.8478633637       -0.1525210913       -0.1563449209
 C          6.7584141923        0.1674536539       -1.1515594260
 C          6.6732938856        1.3914088117       -1.7973089734
 C          5.6840235650        2.3015621388       -1.4552734271
 C          4.7713661996        1.9885185547       -0.4607279924
 H          3.9897778389        2.6675495083       -0.1629782825
 H          5.6206588071        3.2521133696       -1.9600596153
 H          7.3819872458        1.6380017693       -2.5720661981
 H          7.5281321099       -0.5384980561       -1.4190818523
 H          5.8708486293       -1.0937704190        0.3692807961
 H          1.5595307484        1.0600076545        1.3145409163
 H          3.3781777214       -0.9376599565       -1.1033039883
 H          2.3785229859       -2.9062360713       -2.2119231525
 H          0.0872192528       -3.6036805591       -1.6804835684
 H         -1.6114601244       -2.8635554352        1.1396963350
 C         -2.2797381887       -3.4331394166       -0.8113524122
 C         -2.0744267697       -4.9021045750       -0.5994322798
 C         -3.4066703289       -4.2817604309       -0.3070165212
 H         -4.2325668322       -4.4911002228       -0.9700602990
 H         -3.6983593699       -4.1535310750        0.7256680297
 H         -1.9888900045       -5.5414777473       -1.4651107043
 H         -1.4641869014       -5.2068701088        0.2374848015
 H         -2.3468353770       -3.0635637958       -1.8279826511
