  62
        -98.94014889
 C          1.7764355914       -0.8058676230       -0.8446437047
 C          2.0601722720        0.4928346330       -0.3538530332
 C          3.4872778012        0.8112150960       -0.1898752177
 C          4.4250641757       -0.0747138658       -0.5678325733
 C          5.9147425968        0.1134575035       -0.4734964439
 C          6.4976030828       -0.2284683805        0.9046368070
 C          6.1849031346        0.7788471699        2.0120076662
 H          6.8275284717        0.5325349007        2.8595983916
 H          6.4566310135        1.7807015763        1.6780026084
 C          4.7239269705        0.7710365011        2.4835705205
 H          4.6929115939        0.7807677578        3.5754339510
 H          4.2402323567       -0.1533784365        2.1593305897
 C          3.8947969623        1.9600271327        1.9972032827
 H          2.8710289096        1.8379513954        2.3617026604
 H          4.2930470703        2.8835945900        2.4234694490
 C          3.8399120839        2.1094560712        0.4709450203
 H          3.0566761609        2.8309172796        0.2245250734
 H          4.7919688655        2.4837081803        0.0951137146
 H          6.1391453463       -1.2172612701        1.2001389622
 H          7.5827181451       -0.2880117763        0.7938142655
 H          6.1726035893        1.1400141908       -0.7351026926
 H          6.3601797664       -0.5566718844       -1.2118854835
 O          4.1106994814       -1.2774691152       -1.1183575515
 C          2.7906046780       -1.6778467981       -1.2506176553
 O          2.6505321378       -2.8112585186       -1.7513634031
 O          1.1872840391        1.3512697686       -0.0653495353
 C          0.3520934651       -1.3089314822       -1.0042716283
 C         -0.5213566845       -0.2393685169       -1.6108841799
 C         -0.2356159506        0.2040466543       -2.8995340629
 C         -1.0065533235        1.1832824110       -3.4945914486
 C         -2.0896355029        1.7260858088       -2.8262860279
 C         -2.3891987509        1.2840270822       -1.5425412103
 C         -1.6059254341        0.3069979104       -0.9432843157
 H         -1.8185928610        0.0173129400        0.0710522425
 N         -3.5150445819        1.7770233507       -0.8791511153
 S         -3.8673764955        1.5269366033        0.7243028387
 O         -5.0920685048        2.2739640902        0.9244559794
 O         -2.7781650492        1.8706404877        1.6069155656
 C         -4.2157432807       -0.2173179574        0.8286578498
 C         -3.7871335364       -0.9181803151        1.9383010141
 C         -4.0636773656       -2.2731889647        2.0274187047
 C         -4.7654209370       -2.9010419618        1.0100010836
 C         -5.1960586571       -2.1820482432       -0.0946106061
 C         -4.9222967844       -0.8268251989       -0.1889174837
 H         -5.2395495598       -0.2410973081       -1.0353851598
 H         -5.7415247088       -2.6740993974       -0.8837212449
 H         -4.9764375995       -3.9565830940        1.0790195850
 H         -3.7291333581       -2.8328121890        2.8864817626
 H         -3.2367569914       -0.3897592879        2.7011089737
 H         -3.9737444830        2.5762116333       -1.2857702566
 H         -2.6939434559        2.4908198789       -3.2896596420
 H         -0.7649078663        1.5278728171       -4.4889831516
 H          0.6123545167       -0.2195544212       -3.4211081869
 H          0.4219886353       -2.1352379407       -1.7311616139
 C         -0.2335501040       -1.9001588213        0.2703588701
 C          0.6394330819       -2.5959126421        1.2702840032
 C          0.0015171873       -1.2857180780        1.6158904284
 H         -0.8118214526       -1.2798660293        2.3264200803
 H          0.6192677984       -0.4024466982        1.6623727010
 H          0.2648841169       -3.4917622114        1.7415895482
 H          1.7027588385       -2.6153088981        1.0798199164
 H         -1.2125995265       -2.3390514463        0.1009647370
