  62
        -98.94388613
 C          1.8135908656        1.1584485414        0.3183841323
 C          2.0721856656        0.1854732460       -0.6766405410
 C          3.4827878049        0.0249071380       -1.0609404322
 C          4.4181290447        0.7984333816       -0.4801229388
 C          5.8937273739        0.6983748151       -0.7350472949
 C          6.5615961412       -0.2706356315        0.2507502490
 C          5.8493697659       -1.6180144664        0.3706818725
 H          6.4244843203       -2.2292050835        1.0695939073
 H          4.8634949286       -1.4633319728        0.8152491099
 C          5.6905923326       -2.3723290772       -0.9567991662
 H          6.3839740647       -1.9708643905       -1.6966972284
 H          5.9557866279       -3.4198205908       -0.7987045052
 C          4.2724700908       -2.3543459602       -1.5308103481
 H          3.5600882968       -2.6684396274       -0.7632039722
 H          4.2232894021       -3.0878649518       -2.3402058459
 C          3.8008587243       -1.0110609508       -2.1019448511
 H          4.5394194106       -0.6328575062       -2.8118581832
 H          2.8654841942       -1.1904846801       -2.6406553259
 H          7.5935083122       -0.4299691859       -0.0670733930
 H          6.5779943271        0.1966739896        1.2380248163
 H          6.0588225878        0.3646586683       -1.7575242130
 H          6.3325525547        1.6896262631       -0.6099583005
 O          4.1268850966        1.7372885946        0.4560972565
 C          2.8249331754        1.9322833821        0.8874085360
 O          2.6991376264        2.8069787352        1.7680610822
 H         -2.0515328984        0.2179025301        0.2535558673
 C         -1.4587434697       -0.3413397874        0.9573565957
 C         -0.1994986772        0.1067107947        1.3246149926
 C          0.5337869062       -0.6428875130        2.2415534880
 C          0.0276732162       -1.8183682409        2.7595671347
 C         -1.2220970572       -2.2720313642        2.3750327824
 C         -1.9678289274       -1.5277716105        1.4698141326
 N         -3.2579273589       -1.9376980300        1.1041913046
 S         -3.8078356313       -1.7660846981       -0.4679195912
 O         -4.9414915601       -2.6652228286       -0.5407546185
 O         -2.7652836743       -1.9853799138       -1.4412362371
 C         -4.4089184917       -0.0931399264       -0.5595292055
 C         -4.1187527246        0.6660000822       -1.6755445659
 C         -4.6349025118        1.9496136665       -1.7661907835
 C         -5.4280265695        2.4481994788       -0.7438286590
 C         -5.7086531672        1.6726348262        0.3709906773
 C         -5.1998007020        0.3873187379        0.4655684540
 H         -5.3999235846       -0.2457981984        1.3135327649
 H         -6.3235330087        2.0656319365        1.1644227845
 H         -5.8262707657        3.4479576488       -0.8165852205
 H         -4.4158139645        2.5535033546       -2.6327644160
 H         -3.4866764534        0.2422840228       -2.4402829915
 H         -3.5469195893       -2.8220723605        1.4966981481
 H         -1.6169083787       -3.1945688415        2.7730544071
 H          0.6113256823       -2.3910135124        3.4648721727
 H          1.5124514322       -0.2897913312        2.5385284662
 C          0.3929016694        1.3917037953        0.7997645170
 H          0.4732944003        2.0952348760        1.6418534614
 C         -0.4343180767        2.0383974694       -0.2914862964
 C         -1.5575706236        2.9620119692        0.0700026889
 C         -0.2956525911        3.5122477122       -0.5217427322
 H         -0.3163758694        3.8789049297       -1.5369369369
 H          0.3840162493        4.0505812681        0.1229718595
 H         -2.4496923888        2.9530203801       -0.5374889925
 H         -1.7402710194        3.1347100051        1.1197271373
 H         -0.5476576720        1.4024963673       -1.1627389538
 O          1.1752947038       -0.5141402296       -1.2161449282
