  62
        -98.94108382
 C          1.6866923702        0.3219055200        0.9501990566
 C          2.9090187969        0.9734304647        0.6548481812
 C          4.0773414216        0.0967459494        0.4740088086
 C          3.9349853310       -1.2357136690        0.5841476416
 C          5.0276207144       -2.2397991464        0.3607312713
 C          5.0682664218       -2.7010225496       -1.1029541995
 C          5.0518082641       -1.5538087687       -2.1132654911
 H          5.1147083278       -1.9970272998       -3.1094968870
 H          4.0907565958       -1.0378305081       -2.0517973793
 C          6.1857531587       -0.5345631373       -1.9352727132
 H          6.9822795220       -0.9680836290       -1.3293930811
 H          6.6108508532       -0.3087299605       -2.9155662825
 C          5.7501662947        0.7971449623       -1.3212681681
 H          4.8908565497        1.1901037171       -1.8705238813
 H          6.5694929415        1.5110192259       -1.4415621012
 C          5.3921481913        0.7586719302        0.1697494729
 H          6.2005330007        0.2853112958        0.7305414903
 H          5.2945325700        1.7924444779        0.5137922314
 H          5.9658861737       -3.3045352717       -1.2496466235
 H          4.1980833571       -3.3341764748       -1.2906116751
 H          5.9823350965       -1.7984952477        0.6401064437
 H          4.8363070901       -3.1037499315        0.9993485208
 O          2.7472818405       -1.8274465824        0.8681661177
 C          1.6036291596       -1.0713717909        1.0509818631
 O          0.5839891753       -1.7441125682        1.3025707613
 H         -2.0010707294        0.1926585841        0.2516330430
 C         -1.5347053890        0.8782106926       -0.4393920640
 C         -0.2890523803        1.4102048172       -0.1405764556
 C          0.3088506701        2.2739914248       -1.0521146297
 C         -0.3350040151        2.5954544200       -2.2326710348
 C         -1.5896928217        2.0842651053       -2.5154367288
 C         -2.1950945446        1.2198508420       -1.6111632364
 N         -3.4592248273        0.6754529168       -1.8730307831
 S         -4.5511291103        0.4237954204       -0.6312267768
 O         -5.8402437189        0.3940033619       -1.2887900393
 O         -4.3973035757        1.4009637849        0.4207664289
 C         -4.1758848444       -1.2077835756       -0.0287530233
 C         -3.9824250159       -1.4123837195        1.3224735357
 C         -3.7150297609       -2.6942726800        1.7757185939
 C         -3.6479519237       -3.7440870426        0.8734497336
 C         -3.8482352992       -3.5228627115       -0.4807414506
 C         -4.1164806594       -2.2436743374       -0.9395736614
 H         -4.2805327176       -2.0336106507       -1.9833688696
 H         -3.7935445352       -4.3430499458       -1.1784795105
 H         -3.4360145949       -4.7400163102        1.2292200954
 H         -3.5546848663       -2.8674784971        2.8278145338
 H         -4.0377033995       -0.5667883003        1.9904869728
 H         -3.9074777611        1.0144985424       -2.7114453594
 H         -2.0974674533        2.3498990324       -3.4303580067
 H          0.1391830452        3.2631729671       -2.9363143630
 H          1.2817180210        2.6833068519       -0.8276549217
 C          0.3744234962        1.0573970005        1.1693567671
 H         -0.2813384243        0.3427327785        1.6852570997
 C          0.5035889814        2.2947964207        2.0380847971
 C         -0.7419857573        2.8976800478        2.6126333310
 C          0.2331346784        2.1938293522        3.5072963851
 H          0.8322710542        2.7853912206        4.1833068121
 H         -0.0423571516        1.2260690522        3.9009468854
 H         -0.8112414571        3.9731235290        2.6738158541
 H         -1.6825726943        2.4134699708        2.3920276347
 H          1.2877856707        2.9675838991        1.7181487595
 O          3.0475847615        2.2205246455        0.5410088740
