  62
        -98.93420391
 C          1.8404734501       -1.2800291131        0.1277037225
 C          2.1198252160        0.0757114229        0.4272791061
 C          3.4003617506        0.5964400922       -0.0809880022
 C          4.1968299609       -0.1858726841       -0.8292270830
 C          5.4964868445        0.2069371978       -1.4805370730
 C          6.6571694240        0.5599010253       -0.5304449756
 C          6.7874459313        2.0561004249       -0.2193536891
 H          7.8467096927        2.3208706533       -0.2063768507
 H          6.3333675789        2.6244337085       -1.0321472660
 C          6.1962335882        2.5139343945        1.1174074149
 H          6.8823971563        2.2412220253        1.9225381814
 H          6.1301600218        3.6039755708        1.0976210770
 C          4.8239749424        1.9406944765        1.4714760577
 H          4.4373492872        2.4899786201        2.3322335255
 H          4.9324553209        0.9016254600        1.7915041367
 C          3.7922889073        1.9870180857        0.3276624967
 H          2.8805454339        2.4816615965        0.6686894526
 H          4.1854148491        2.5409361329       -0.5235885447
 H          7.5759156945        0.2333288619       -1.0202495238
 H          6.5611991076       -0.0146757340        0.3904800315
 H          5.3113168783        1.0475129302       -2.1534074429
 H          5.7847283158       -0.6509385324       -2.0915920505
 O          3.8729632930       -1.4732877731       -1.1298217493
 C          2.7130352034       -2.0514684734       -0.6464694094
 O          2.5674616935       -3.2474611358       -0.9694393883
 O          1.3521528681        0.8375863299        1.0705575882
 C          0.5942517619       -2.0050365879        0.6123046747
 C         -0.5799588041       -1.7588065510       -0.2989788753
 C         -1.3365136411       -2.8148935774       -0.7923266317
 C         -2.4256822379       -2.5788836976       -1.6138978081
 C         -2.7841093118       -1.2874727974       -1.9565961738
 C         -2.0345759979       -0.2251983790       -1.4672003698
 C         -0.9425756504       -0.4642035041       -0.6457070636
 H         -0.3665128374        0.3657635955       -0.2639830900
 N         -2.3928348766        1.0976267572       -1.8003151024
 S         -3.9384259923        1.5882022456       -1.3760783874
 O         -4.8924970346        0.9233548221       -2.2274875665
 O         -3.9183385491        3.0313449974       -1.4429900879
 C         -4.1389358976        1.0444219285        0.3096539779
 C         -3.6678245812        1.8565227963        1.3221392432
 C         -3.7544364984        1.4137127432        2.6319800559
 C         -4.2944427235        0.1659116607        2.9037341173
 C         -4.7605168345       -0.6385905727        1.8755741992
 C         -4.6847995659       -0.1980227176        0.5639148855
 H         -5.0431145391       -0.7900715216       -0.2618029174
 H         -5.1787840189       -1.6085655413        2.0903631731
 H         -4.3501890967       -0.1819004795        3.9228395542
 H         -3.3927053174        2.0383394645        3.4327738199
 H         -3.2541743305        2.8196907812        1.0690320526
 H         -1.7210463213        1.7767518776       -1.4705488210
 H         -3.6317483222       -1.0840915557       -2.5910042221
 H         -3.0008600739       -3.4094609639       -1.9937684400
 H         -1.0575457640       -3.8271557406       -0.5387324070
 H          0.8451675581       -3.0750723654        0.5442169262
 C          0.2754657348       -1.7116406204        2.0736554373
 C         -0.8806034771       -0.8770116250        2.5263815649
 C         -0.9088483727       -2.3600861629        2.7281054762
 H         -0.7965629689       -2.7532639755        3.7268451051
 H         -1.5689666684       -2.9343754585        2.0958962817
 H         -0.7264389980       -0.2356043444        3.3801953752
 H         -1.5323615521       -0.4521598296        1.7797386072
 H          1.1799259664       -1.6382133365        2.6696252822
