  62
        -98.93634529
 C         -2.2227484700       -0.9623757700        0.5833878596
 C         -2.1433479902       -0.1876937602       -0.5970910005
 C         -2.5551530306        1.2235803897       -0.4826011007
 C         -2.9525050408        1.6944231798        0.7123444892
 C         -3.4526105313        3.0747669596        1.0388874689
 C         -4.9854294113        3.1431000992        0.9273003488
 C         -5.5163888413        3.4777411188       -0.4658031613
 H         -6.6032477313        3.3741737185       -0.4326269914
 H         -5.2927063916        4.5218919588       -0.6938115215
 C         -4.9739730009        2.6029136588       -1.5985882712
 H         -5.6668236509        2.6741509884       -2.4390666212
 H         -4.9562146106        1.5588035888       -1.2810713110
 C         -3.5748634010        3.0257825791       -2.0711288111
 H         -3.5795485210        3.1499708290       -3.1560540311
 H         -3.3326133514        4.0012890593       -1.6501691312
 C         -2.4519196108        2.0306627795       -1.7479422009
 H         -2.3851245805        1.2846618594       -2.5467566407
 H         -1.4907783509        2.5580890898       -1.7412751009
 H         -5.3878350410        2.1808296991        1.2537464389
 H         -5.3521661316        3.9030383992        1.6200938286
 H         -2.9761499415        3.8163211197        0.4045571488
 H         -3.1703100514        3.2678351099        2.0760491789
 O         -2.9960374407        0.9154470099        1.8296468293
 C         -2.6262399503       -0.4165277600        1.8000201895
 O         -2.6891463602       -0.9962228098        2.9038540696
 O         -1.7506574399       -0.6517829503       -1.7000813504
 C         -1.7922352696       -2.4184582499        0.5611675699
 C         -0.3680745695       -2.5097778596        0.0676770100
 C          0.0610577008       -3.4229930896       -0.8859636198
 C          1.3740937109       -3.4148503092       -1.3258943097
 C          2.2858821306       -2.5035231789       -0.8259863898
 C          1.8702943602       -1.5982853489        0.1400100301
 C          0.5598508502       -1.6152268992        0.5863884100
 H          0.2404640399       -0.8973933092        1.3340670398
 N          2.7950989899       -0.6512240185        0.6477493700
 S          3.1465817796        0.6374305114       -0.3931486202
 O          2.3145918292        1.7713770812       -0.0415559504
 O          3.0836067198        0.1801831112       -1.7567060301
 C          4.8383648694        0.9776104820        0.0533047499
 C          5.1244505290        2.0069438423        0.9281635198
 C          6.4428859489        2.2287319927        1.2946643898
 C          7.4462908592        1.4183302629        0.7861981800
 C          7.1430907096        0.3880466827       -0.0916269298
 C          5.8273023297        0.1625748423       -0.4621032799
 H          5.5456379800       -0.6196333379       -1.1473398598
 H          7.9261086798       -0.2387931171       -0.4868776397
 H          8.4710806092        1.5922705133        1.0739642701
 H          6.6811230386        3.0308753629        1.9745839397
 H          4.3132965688        2.6161840521        1.2932374196
 H          2.4649951797       -0.2455390685        1.5143598999
 H          3.3017658006       -2.4709869286       -1.1829269697
 H          1.6879730112       -4.1238979093       -2.0768336396
 H         -0.6379056689       -4.1316985199       -1.2993064398
 H         -1.8195701796       -2.7613572098        1.6060919399
 C         -2.7689619893       -3.2437267603       -0.2500839301
 C         -2.9953244588       -4.6878590504        0.0793367301
 C         -4.0541853692       -3.6738450406        0.3886616999
 H         -4.9541465491       -3.6658042110       -0.2076419402
 H         -4.2115774494       -3.3927164605        1.4200445898
 H         -3.1724055186       -5.3796390005       -0.7302228398
 H         -2.4390412788       -5.1054492701        0.9047796502
 H         -2.8030861293       -2.9405811305       -1.2903212401
