  62
        -98.93831950
 C          1.6839112102        1.1511684710        0.1370085818
 C          1.9011971705       -0.2074583688       -0.1901170888
 C          3.1856235705       -0.7944397088        0.2391069512
 C          4.0692589502       -0.0452746890        0.9229351019
 C          5.4182377301       -0.3873687590        1.5199680021
 C          6.1608708304       -1.6546165287        1.1033582716
 C          6.6342051208       -1.6723559479       -0.3495711482
 H          7.4268528807       -0.9289868677       -0.4663911076
 H          7.0670194411       -2.6540940577       -0.5544619586
 C          5.5634734211       -1.3733049475       -1.3958983784
 H          6.0347829614       -1.4294540569       -2.3809086483
 H          5.2036458009       -0.3500320377       -1.2704037580
 C          4.3676973112       -2.3236479777       -1.3980315792
 H          3.7741480215       -2.1019072274       -2.2888620793
 H          4.7176852514       -3.3547049476       -1.4777154596
 C          3.4322386109       -2.2151619985       -0.1809945194
 H          2.4596010310       -2.6262316685       -0.4664849299
 H          3.8004696707       -2.8031363089        0.6564173904
 H          7.0479121402       -1.7171677089        1.7397416019
 H          5.5592183805       -2.5330927589        1.3176335410
 H          5.2646249998       -0.4179330496        2.6045382720
 H          6.0562685000        0.4804483612        1.3247838227
 O          3.8055712099        1.2552303308        1.2415795124
 C          2.6379938499        1.8813921708        0.8519699924
 O          2.5652076796        3.0788882706        1.1929777630
 O          1.0718263108       -0.9330789686       -0.8030922494
 C          0.4440510002        1.9326265710       -0.2690720082
 C         -0.7383145400        1.6593937903        0.6285025614
 C         -1.4501411104        2.6995235199        1.2143444217
 C         -2.5657983106        2.4429126893        1.9930949712
 C         -2.9920760504        1.1440510492        2.2088386304
 C         -2.2798147100        0.0997742696        1.6364705101
 C         -1.1704076499        0.3594011002        0.8467773506
 H         -0.6367493096       -0.4597091995        0.3883168903
 N         -2.7186275899       -1.2330072906        1.8317291393
 S         -4.1176285996       -1.6022518404        0.9820618887
 O         -5.2182705599       -0.8819179009        1.5699323588
 O         -4.2199643293       -3.0440059004        0.9878631380
 C         -3.7982067592       -1.0006513495       -0.6657541509
 C         -4.1829860993        0.2810898206       -1.0031069103
 C         -3.8458453690        0.7719324313       -2.2537915400
 C         -3.1281835787       -0.0205135182       -3.1362452502
 C         -2.7456735985       -1.3045663583       -2.7806050007
 C         -3.0785857188       -1.8000467090       -1.5308046211
 H         -2.7996355887       -2.7935346891       -1.2172323215
 H         -2.1812746782       -1.9160382278       -3.4663631309
 H         -2.8633682084        0.3627470424       -4.1094416399
 H         -4.1383391891        1.7716520114       -2.5317277696
 H         -4.7382345096        0.8643233601       -0.2869603002
 H         -2.0073837197       -1.9069180404        1.5805710292
 H         -3.8675340605        0.9234527187        2.7978571501
 H         -3.1090584608        3.2625543790        2.4381005415
 H         -1.1201589705        3.7165704601        1.0614719423
 H          0.7162504300        2.9900964910       -0.1526782676
 C          0.0479112006        1.6965835917       -1.7157809384
 C         -0.6659685593        2.7810585819       -2.4614774181
 C          0.7567639608        2.4511602524       -2.7979230678
 H          0.9673053812        1.9429706429       -3.7267338780
 H          1.5281294506        3.1461987923       -2.4980216672
 H         -1.4365168291        2.5006469322       -3.1615718284
 H         -0.8594251796        3.7052584816       -1.9386792976
 H         -0.2319532091        0.6714645017       -1.9209112490
