  62
        -98.94109851
 C         -1.9089389962       -0.9262165371        0.2623432778
 C         -2.3185902296        0.0655153332        1.1875335811
 C         -2.5156640060        1.4173078082        0.6507323929
 C         -2.2444567685        1.6524685158       -0.6457112101
 C         -2.4257667505        2.9743027636       -1.3335680738
 C         -3.8264901706        3.0978387495       -1.9495870089
 C         -4.9571245031        2.7297990833       -0.9888354408
 H         -5.8984732937        2.8802127051       -1.5214270022
 H         -4.8882752438        1.6659675375       -0.7504708353
 C         -4.9712740005        3.5402278071        0.3147453059
 H         -4.3708449178        4.4427558179        0.1961663573
 H         -5.9962013404        3.8558544189        0.5200038018
 C         -4.4877605844        2.7703106052        1.5451529453
 H         -5.0212204724        1.8190427095        1.6158472124
 H         -4.7409896184        3.3543726809        2.4337964206
 C         -2.9819337366        2.4824570089        1.6031550040
 H         -2.4217774490        3.4073534760        1.4483028016
 H         -2.7507408736        2.1075997969        2.6048219397
 H         -3.9606788513        4.1237177533       -2.2971562933
 H         -3.8823613504        2.4344196391       -2.8156326718
 H         -2.2598658041        3.7743910261       -0.6143519553
 H         -1.6773869075        3.0504693065       -2.1244308793
 O         -1.8124267780        0.6887189150       -1.4961098740
 C         -1.6164308460       -0.6164119907       -1.0677771632
 O         -1.2023041493       -1.3810627074       -1.9592087525
 H          0.6008550312       -0.9419073325        1.0894493449
 C          0.7909613959       -1.8809759790        0.5877477960
 C         -0.2615833432       -2.7576254628        0.3522235259
 C          0.0064080327       -3.9591947867       -0.2886081877
 C          1.2933403127       -4.2556474597       -0.7047226688
 C          2.3278828532       -3.3604926223       -0.5090551433
 C          2.0706375140       -2.1584807460        0.1420367822
 N          3.0974110798       -1.2235345947        0.3722088247
 S          2.6965169390        0.4165886686        0.2904453819
 O          2.1563443375        0.8241939029        1.5648665243
 O          1.8783118442        0.6872996515       -0.8699960117
 C          4.3204381466        1.1250355365        0.0819960420
 C          5.1260756551        1.2776770146        1.1947263879
 C          6.4010015978        1.7960205111        1.0322417046
 C          6.8470787115        2.1501643170       -0.2325650736
 C          6.0266971851        1.9928547499       -1.3395033310
 C          4.7507992475        1.4736449922       -1.1841358751
 H          4.0736915839        1.3398038868       -2.0128267419
 H          6.3741043348        2.2719634781       -2.3211576794
 H          7.8393475544        2.5541244949       -0.3563014961
 H          7.0404672137        1.9223354659        1.8908222790
 H          4.7312356928        0.9968772183        2.1570982956
 H          3.9280780189       -1.4213964737       -0.1700023986
 H          3.3240506347       -3.5826819893       -0.8605067316
 H          1.4880354196       -5.1897539547       -1.2096598181
 H         -0.7945954851       -4.6514476828       -0.4893370549
 C         -1.6339663258       -2.3201629043        0.8002250615
 H         -1.6016192119       -2.1830789173        1.8952561882
 C         -2.7265517860       -3.3418315442        0.5256539743
 C         -4.1365909864       -2.9104944277        0.2569695684
 C         -3.3228038314       -3.5326972054       -0.8356250826
 H         -3.5717816183       -4.5362261336       -1.1485213579
 H         -2.9568916031       -2.9026337286       -1.6306230538
 H         -4.9408612010       -3.4830268259        0.6941173789
 H         -4.3318394059       -1.8489061727        0.2065610332
 H         -2.6086954880       -4.2334130824        1.1340394539
 O         -2.5051644891       -0.1704097058        2.4131080745
