  62
        -98.94309449
 C         -1.8438264201       -0.6096905995       -0.0534879201
 C         -2.3836988003        0.6400907707        0.3494112190
 C         -3.7398308703        0.9455720302       -0.1174085212
 C         -4.3853462402        0.0670708696       -0.9053464306
 C         -5.7620074802        0.2402132691       -1.4872732508
 C         -6.8972845402       -0.1557575904       -0.5333342906
 C         -7.1420353903        0.8134038403        0.6239038788
 H         -7.2521667304        1.8251262101        0.2322219181
 H         -8.0944624003        0.5349345305        1.0793132290
 C         -6.0539568104        0.7943643411        1.7066093688
 H         -5.4566201103       -0.1148700688        1.6073771894
 H         -6.5220886004        0.7635564517        2.6930956788
 C         -5.1188187505        2.0037020412        1.6877848781
 H         -5.6848048806        2.9091243013        1.9181980475
 H         -4.3674327305        1.8688703618        2.4701779482
 C         -4.3833495905        2.2132446305        0.3575450080
 H         -5.0713324605        2.5960041699       -0.3962773023
 H         -3.5913884306        2.9498728707        0.5149017475
 H         -7.8129851702       -0.2188984209       -1.1256574706
 H         -6.6886537301       -1.1518619801       -0.1364631299
 H         -5.8103855901       -0.4053474415       -2.3668271604
 H         -5.8970923103        1.2739243889       -1.8069038315
 O         -3.8286796901       -1.1098707305       -1.2878637999
 C         -2.5610533700       -1.4894293801       -0.8653952796
 O         -2.2188225099       -2.6111440903       -1.2854991589
 O         -1.7600624204        1.4622198912        1.0736998185
 C         -0.4449090301       -0.9433585390        0.4407316401
 C          0.5752916399       -0.6850720996       -0.6424119700
 C          0.6691662700       -1.4992660903       -1.7672644495
 C          1.5903225700       -1.2189355209       -2.7590551797
 C          2.4445323499       -0.1360198007       -2.6446233003
 C          2.3592478097        0.6836911100       -1.5263690509
 C          1.4294473297        0.4038048206       -0.5336973207
 H          1.3615382796        1.0634282211        0.3185139989
 N          3.2099781096        1.7944035602       -1.3854363316
 S          4.0077645295        2.0095950413        0.0692772283
 O          3.1032518895        2.5112971618        1.0711947780
 O          5.1339165195        2.8579370512       -0.2552729122
 C          4.5778786797        0.3769825416        0.5061399294
 C          3.9867345898       -0.3043243578        1.5495701598
 C          4.4145320599       -1.5910685875        1.8371237707
 C          5.4146841500       -2.1729854479        1.0743807511
 C          6.0010518799       -1.4743434085        0.0299290506
 C          5.5797463898       -0.1871838888       -0.2595548802
 H          6.0216647798        0.3928123408       -1.0534511606
 H          6.7818426800       -1.9287773388       -0.5582418691
 H          5.7402966601       -3.1764568277        1.2982781417
 H          3.9639442700       -2.1354639071        2.6516374910
 H          3.2117042697        0.1864838125        2.1164827195
 H          3.8423631696        1.9284908698       -2.1615080716
 H          3.1632150299        0.0817965989       -3.4200898605
 H          1.6470841701       -1.8537519514       -3.6302146092
 H         -0.0066551499       -2.3333860705       -1.8705284090
 H         -0.2537488802       -0.2261048985        1.2508716896
 C         -0.3277623600       -2.3450500586        1.0046386410
 C          0.7562738500       -2.6378344279        1.9957866212
 C         -0.6729650000       -2.5813371477        2.4431870712
 H         -1.1714015699       -3.5017191076        2.7080381417
 H         -0.9925208101       -1.7298757074        3.0269850406
 H          1.2454756401       -3.5984900278        1.9551730819
 H          1.4031206899       -1.8206102176        2.2757135007
 H         -0.5943278799       -3.1210740791        0.2999907615
