  62
        -98.94073722
 C         -1.1525835791       -0.9863119006        0.4206228605
 C         -2.0270618692       -0.7793593613       -0.6720192196
 C         -3.0573131191        0.2546182289       -0.4855770401
 C         -3.0742582590        0.9682386796        0.6548210695
 C         -4.1033693489        1.9998859698        1.0207564589
 C         -5.4054223289        1.3079484401        1.4729552095
 C         -6.6018009590        1.5526472396        0.5533062095
 H         -7.3889000790        0.8557998598        0.8489722700
 H         -6.9768464990        2.5644208797        0.7209518689
 C         -6.3340511492        1.3952320587       -0.9467080905
 H         -7.3071949592        1.3321565984       -1.4382820703
 H         -5.8499542292        2.2949909784       -1.3295699211
 C         -5.4961667792        0.1769062984       -1.3555144598
 H         -5.5718431492       -0.6110970811       -0.6060556893
 H         -5.9110375093       -0.2240505622       -2.2824819295
 C         -4.0106493093        0.4814737182       -1.6261894101
 H         -3.6557851294       -0.1825219823       -2.4203103398
 H         -3.9069816893        1.5083113580       -1.9887514508
 H         -5.2143677289        0.2352918402        1.5457027901
 H         -5.6688623788        1.6489930108        2.4752852193
 H         -3.6878402588        2.6000599803        1.8307409185
 H         -4.2890759190        2.6502053193        0.1686115885
 O         -2.1819545589        0.7762245802        1.6609655295
 C         -1.1952895890       -0.1907067599        1.5644497700
 O         -0.4271536889       -0.2444834393        2.5474572199
 O         -1.9532458093       -1.4242735219       -1.7510207692
 C         -0.0565106391       -2.0314488407        0.3280815610
 C          0.9153450508       -1.6729840214       -0.7712150693
 C          1.4923314906       -2.6066426220       -1.6227671188
 C          2.4013024206       -2.2041081626       -2.5863578991
 C          2.7760295406       -0.8777751727       -2.7041989700
 C          2.2086745807        0.0625522779       -1.8519454105
 C          1.2823543608       -0.3412823615       -0.9049784002
 H          0.8265719009        0.4027936889       -0.2701243106
 N          2.5601532307        1.4198059378       -1.9195102114
 S          2.6784387109        2.2957777187       -0.4984321019
 O          1.3675864710        2.6294745690        0.0006887480
 O          3.5223931209        3.4201264184       -0.8454451927
 C          3.5495243410        1.2162979293        0.6241955786
 C          2.9042981411        0.6152791900        1.6851251291
 C          3.6182370911       -0.2588571295        2.4912053495
 C          4.9537440211       -0.5158751197        2.2264509496
 C          5.5903837210        0.1032826496        1.1610254791
 C          4.8829499010        0.9747659691        0.3506389986
 H          5.3441811009        1.4847588486       -0.4795112617
 H          6.6310144310       -0.0930747805        0.9596204491
 H          5.5005049511       -1.2001435393        2.8558461499
 H          3.1142840912       -0.7346778290        3.3175935499
 H          1.8619406711        0.8212803702        1.8749197590
 H          3.3109529707        1.6354264774       -2.5587616016
 H          3.4907075105       -0.5689314932       -3.4512869103
 H          2.8335055005       -2.9373623930       -3.2499877187
 H          1.2245645906       -3.6469403219       -1.5378081681
 H          0.4920981010       -1.9777435902        1.2809070709
 C         -0.6486663492       -3.4179950908        0.1845897019
 C          0.0666313808       -4.6069358805        0.7503891026
 C         -1.1836464791       -4.1036258600        1.4048172024
 H         -2.0876924691       -4.6868504001        1.3144032129
 H         -1.0957702990       -3.5796217094        2.3458173321
 H          0.0189194907       -5.5414398208        0.2119924332
 H          1.0051756509       -4.4332683702        1.2546007424
 H         -1.1997206893       -3.5405125013       -0.7403543279
