  62
        -98.94087175
 C         -2.6477238774       -1.2896849053        0.2321349352
 C         -2.3232811804       -0.2803019509       -0.7111752805
 C         -3.2683268755        0.8435365445       -0.7943828390
 C         -4.3834922730        0.8482217091       -0.0443325600
 C         -5.4411935634        1.9176217743       -0.0300723478
 C         -5.1107147488        3.1010300567        0.8900066179
 C         -4.0084128408        4.0327443596        0.3839811075
 H         -4.2361075461        4.3442711926       -0.6358900066
 H         -4.0323480108        4.9264376875        1.0106139779
 C         -2.5952631957        3.4341125169        0.4362616235
 H         -1.9029807384        4.1657160434        0.8589738300
 H         -2.5877301889        2.5681002669        1.1024968308
 C         -2.0325345324        3.0159947384       -0.9225603049
 H         -1.9055519515        3.8986104801       -1.5539471950
 H         -1.0439935780        2.5738929199       -0.7653329593
 C         -2.8977934381        1.9972397238       -1.6763162250
 H         -3.7918953953        2.4806937623       -2.0698263798
 H         -2.3128876306        1.6058850396       -2.5125887899
 H         -4.8350425838        2.7123922378        1.8730220595
 H         -6.0249952171        3.6869985517        1.0081115668
 H         -5.6124595512        2.2793254248       -1.0441771344
 H         -6.3570589261        1.4454669819        0.3316961118
 O         -4.6881587740       -0.1653184798        0.8085367273
 C         -3.8136397127       -1.2212835761        1.0027367623
 O         -4.1861013797       -2.0325115448        1.8736355907
 H          0.4368625215       -2.1727729132       -1.1124300257
 C          0.6277065741       -1.7770150082       -0.1271279217
 C         -0.3498706336       -1.8716458016        0.8500534943
 C         -0.0959136980       -1.3307258636        2.1064949950
 C          1.1095030326       -0.7100583568        2.3762931006
 C          2.0746191768       -0.5957848798        1.3909857727
 C          1.8215351209       -1.1158402321        0.1291990185
 N          2.7842527154       -0.9678662088       -0.8855436415
 S          3.4198494987        0.5700311877       -1.1271607018
 O          2.5150566825        1.6105381043       -0.6988217074
 O          3.8292634797        0.5980240064       -2.5150578213
 C          4.8796117441        0.5785990918       -0.1039352646
 C          5.0572549854        1.5770410262        0.8335984026
 C          6.2043513602        1.5706523342        1.6120521057
 C          7.1499025682        0.5717487651        1.4388707670
 C          6.9585187167       -0.4223588710        0.4907651583
 C          5.8143420318       -0.4208880407       -0.2908266178
 H          5.6293909336       -1.1717891043       -1.0405520075
 H          7.6963968316       -1.1971848224        0.3587255857
 H          8.0412797043        0.5685496670        2.0460954115
 H          6.3545793015        2.3435618190        2.3487128112
 H          4.2925425454        2.3308417205        0.9358162876
 H          2.4870154176       -1.3591248709       -1.7685464516
 H          3.0069171394       -0.0906654710        1.5845409955
 H          1.2957044176       -0.3001176048        3.3574095893
 H         -0.8641140408       -1.3900499833        2.8656754112
 C         -1.7116371368       -2.4462247976        0.5526351840
 H         -2.1102358614       -2.8816600946        1.4823534892
 C         -1.6810717167       -3.5702865752       -0.4710561466
 C         -2.9615807159       -4.0806901516       -1.0607252288
 C         -1.9646582268       -3.3764195252       -1.9286184660
 H         -1.3990847948       -3.9650256639       -2.6368469446
 H         -2.1922970062       -2.3815933674       -2.2761153565
 H         -3.0899585638       -5.1459556845       -1.1788630034
 H         -3.8684443238       -3.5558552692       -0.7965145085
 H         -0.9335244847       -4.3168524686       -0.2193267389
 O         -1.3128920918       -0.2955104664       -1.4606633563
