  62
        -98.94184958
 C         -1.1844625255       -1.0118878822        0.4218310383
 C         -2.0331000923       -0.7076459660       -0.6658115273
 C         -3.0096017412        0.3819337213       -0.4629072045
 C         -3.0084467611        1.0461422390        0.7078005392
 C         -3.9243162331        2.1561602660        1.1504872715
 C         -5.3239486453        1.6521650555        1.5395720828
 C         -5.9237002578        0.6195917808        0.5886552221
 H         -5.2483747486       -0.2347324493        0.5158943221
 H         -6.8553901138        0.2607258807        1.0337230072
 C         -6.2436209662        1.1342290609       -0.8126090715
 H         -6.7377544479        0.3221822971       -1.3519296991
 H         -6.9518983524        1.9623329609       -0.7371441889
 C         -5.0455474673        1.5957792031       -1.6448480181
 H         -5.3887670330        1.7042691271       -2.6779860982
 H         -4.7035141353        2.5782430271       -1.3301166374
 C         -3.8753618298        0.6174678274       -1.6772122058
 H         -4.2410728371       -0.3694599166       -1.9831456496
 H         -3.1844800479        0.9272333292       -2.4713476686
 H         -5.9908240064        2.5126320504        1.6153345666
 H         -5.2527867719        1.1920369419        2.5281455587
 H         -3.4607513615        2.6126060238        2.0281846219
 H         -3.9840237897        2.9182555764        0.3789004270
 O         -2.1412271407        0.7433234490        1.7160458514
 C         -1.2061337252       -0.2647961939        1.5977499002
 O         -0.4591856205       -0.3992713730        2.5899881729
 H          0.7829398164        0.3168667181       -0.3063709234
 C          1.2462804642       -0.4401471644       -0.9196538324
 C          0.8592577333       -1.7653287802       -0.7803910733
 C          1.4473730788       -2.7156887754       -1.6060957355
 C          2.3868609889       -2.3357328573       -2.5491883325
 C          2.7775567121       -1.0147247451       -2.6751970356
 C          2.1977391042       -0.0574663694       -1.8505429622
 N          2.5572393311        1.2958584810       -1.9375840610
 S          2.6091584226        2.2310383722       -0.5525397234
 O          1.2759639548        2.5489417495       -0.1046986854
 O          3.4341355113        3.3616253868       -0.9231957347
 C          3.4745211242        1.2264061469        0.6410496601
 C          2.8091124987        0.6370905141        1.6959000701
 C          3.5209160470       -0.1784729805        2.5627493204
 C          4.8758577565       -0.3888244817        2.3638965661
 C          5.5327792061        0.2182543076        1.3036920253
 C          4.8270445462        1.0302610601        0.4323309660
 H          5.3025984157        1.5297222023       -0.3961251429
 H          6.5883053949        0.0585830133        1.1539968147
 H          5.4217763822       -1.0267604679        3.0408654202
 H          2.9993479397       -0.6449799600        3.3834866626
 H          1.7529495424        0.8080555347        1.8367306995
 H          3.3267744939        1.4963458990       -2.5589511948
 H          3.5136030074       -0.7228330915       -3.4082055055
 H          2.8288528055       -3.0821150248       -3.1914326770
 H          1.1645515135       -3.7516728560       -1.5161552793
 C         -0.1437685123       -2.1079581128        0.2961598939
 H          0.3957694773       -2.1211962274        1.2558359607
 C         -0.8070140453       -3.4547714769        0.0920700370
 C         -0.1829408484       -4.6990522434        0.6467888907
 C         -1.4244408502       -4.1407147039        1.2726046401
 H         -2.3572704795       -4.6664018806        1.1345719624
 H         -1.3397054452       -3.6483668626        2.2308582873
 H         -0.2657951955       -5.6139609471        0.0796495798
 H          0.7449284233       -4.5958071537        1.1887891919
 H         -1.3306218991       -3.5192970106       -0.8545283330
 O         -1.9900882613       -1.3184199849       -1.7666946221
