  62
        -98.94349185
 C         -1.8271780428       -0.8575847804       -0.6804805933
 C         -2.0673307437       -0.0694516396        0.4708539764
 C         -3.4727119086        0.0330730383        0.8910457194
 C         -4.4190664299       -0.6254605736        0.1972297693
 C         -5.8902769371       -0.5718345683        0.4892144927
 C         -6.5737603995        0.5541109150       -0.2990704357
 C         -5.8629323386        1.9029989296       -0.1901447469
 H         -4.8860326268        1.8305306216       -0.6734849897
 H         -6.4504076073        2.6266720451       -0.7593372049
 C         -5.6801956799        2.4097276590        1.2473286757
 H         -5.9480228179        3.4678777382        1.2819527120
 H         -6.3614543422        1.8818603990        1.9156679766
 C         -4.2521947856        2.2934694386        1.7837579637
 H         -4.1887376626        2.8729998275        2.7085317450
 H         -3.5556518010        2.7390553742        1.0694034666
 C         -3.7721077860        0.8716677910        2.1017492555
 H         -2.8276047026        0.9531440392        2.6476402010
 H         -4.4992879012        0.3733076687        2.7461048166
 H         -7.6005708028        0.6512435104        0.0583008112
 H         -6.6065534604        0.2681853174       -1.3529654241
 H         -6.0380213440       -0.4234963143        1.5571734793
 H         -6.3330828810       -1.5263828797        0.1996501108
 O         -4.1448529778       -1.3912944014       -0.8903828507
 C         -2.8479024018       -1.5216226535       -1.3594981581
 O         -2.7340515995       -2.2503382890       -2.3664902458
 O         -1.1587500942        0.5155429955        1.1149757488
 C         -0.4098242143       -1.0168866485       -1.1993373366
 C          0.4730642573       -1.6083357145       -0.1272130393
 C          0.0212510018       -2.7158593340        0.5862696932
 C          0.7979768244       -3.2812550502        1.5780900408
 C          2.0470428929       -2.7629335272        1.8726515985
 C          2.5129195325       -1.6656343166        1.1595926621
 C          1.7272485557       -1.0973826663        0.1652837984
 H          2.1079435357       -0.2517349426       -0.3812974396
 N          3.7600381955       -1.1013557353        1.4548942966
 S          4.6998428236       -0.3963706309        0.2703076402
 O          4.6229556535       -1.1200269435       -0.9775223242
 O          6.0172083185       -0.3041878054        0.8637052011
 C          4.0392416278        1.2450498370        0.0695081995
 C          4.0923655443        1.8302821636       -1.1802791569
 C          3.6096695631        3.1197264407       -1.3394168791
 C          3.0847572288        3.7983684155       -0.2506051419
 C          3.0426431528        3.1981341399        0.9985030176
 C          3.5274627617        1.9108003984        1.1652853303
 H          3.5006265662        1.4148477222        2.1210669358
 H          2.6290649010        3.7266947121        1.8423028535
 H          2.7042064269        4.7997394095       -0.3768939801
 H          3.6416938101        3.5883307401       -2.3103757628
 H          4.4976963207        1.2609694584       -2.0019222439
 H          4.3087345483       -1.5901141960        2.1461597470
 H          2.6534794221       -3.2015895554        2.6503815412
 H          0.4306850298       -4.1359598946        2.1262810689
 H         -0.9537657049       -3.1237199003        0.3550914623
 H         -0.4661044616       -1.7389553296       -2.0275935398
 C          0.0964902436        0.3052258543       -1.7382458261
 C          1.1159546968        0.3358234144       -2.8356325044
 C         -0.3031504683        0.7241439531       -3.1198805422
 H         -0.5268556744        1.7648200199       -3.2995171376
 H         -0.9195160234        0.0404503471       -3.6858141578
 H          1.8657427027        1.1122284729       -2.8175777194
 H          1.4737765961       -0.6101063087       -3.2139851808
 H          0.1441820728        1.0740168334       -0.9751802161
