  62
        -98.94608559
 C         -0.9534621065       -1.6616283414        0.6178000994
 C         -1.7182627870       -1.5656183229       -0.5694428904
 C         -2.8535122387       -0.6330918251       -0.5242770002
 C         -3.0848405999        0.0716845845        0.5982668799
 C         -4.2098451117        1.0492536323        0.7774062901
 C         -3.7936466045        2.4757077631        0.3956035200
 C         -3.0736486250        2.5714665445       -0.9488714101
 H         -2.8475311170        3.6249908750       -1.1229590701
 H         -2.1182533039        2.0456785963       -0.8810934503
 C         -3.8752030841        2.0222588530       -2.1372319699
 H         -3.7897029657        2.7229533532       -2.9702926000
 H         -4.9319226940        1.9590527010       -1.8745473697
 C         -3.4011954216        0.6619733539       -2.6517884301
 H         -3.8801603015        0.4783239730       -3.6173209800
 H         -2.3218121517        0.6887503860       -2.8221577203
 C         -3.7164903792       -0.5386650667       -1.7508012800
 H         -4.7744948391       -0.5287417787       -1.4803906398
 H         -3.5175465375       -1.4476487663       -2.3260497601
 H         -3.1251348951        2.8554267644        1.1694690299
 H         -4.6877929957        3.1013510714        0.3774350802
 H         -5.0535288212        0.7300155107        0.1682173103
 H         -4.5088719915        1.0358829417        1.8270073602
 O         -2.2955724195       -0.0099952940        1.7006569297
 C         -1.2131038578       -0.8738721320        1.7382774595
 O         -0.5705465477       -0.8482166007        2.8084816794
 H          1.2752894207       -0.2414516472        0.2990015390
 C          1.6908665519       -0.9594275164       -0.3929179511
 C          1.2451212544       -2.2750927072       -0.3532435110
 C          1.7860147660       -3.1878058762       -1.2485102211
 C          2.7428712450       -2.7838775343       -2.1637865113
 C          3.1991301425       -1.4792413035       -2.1846595914
 C          2.6713890310       -0.5593312045       -1.2847038613
 N          3.1127743384        0.7724431864       -1.2693541914
 S          3.3399176772        1.5643893768        0.1904890486
 O          4.3813912553        2.5318381288       -0.0866810716
 O          3.6043063692        0.6350922773        1.2625096085
 C          1.8235077556        2.4527477239        0.4712283089
 C          1.5264240334        3.4952517033       -0.3857304910
 C          0.3848986420        4.2455035311       -0.1599839908
 C         -0.4375190772        3.9435775895        0.9151805194
 C         -0.1328724050        2.8874510901        1.7593563693
 C          1.0103747464        2.1344920923        1.5398413191
 H          1.2714820281        1.3086444428        2.1849864790
 H         -0.7743953344        2.6346952189        2.5893604394
 H         -1.3185728783        4.5382446679        1.0986015496
 H          0.1410002303        5.0648330007       -0.8166855107
 H          2.2019455528        3.7075107346       -1.1975616811
 H          3.8576668079        0.9772765978       -1.9196593115
 H          3.9563625218       -1.1706772920       -2.8894260416
 H          3.1487469663       -3.4997524536       -2.8625061314
 H          1.4557493080       -4.2132830168       -1.2355351911
 C          0.2111494953       -2.6324504592        0.6868088392
 H          0.6731644952       -2.4861970083        1.6749694391
 C         -0.2890719220       -4.0585573202        0.5893060793
 C          0.4838806303       -5.1730888187        1.2256789391
 C         -0.8154207804       -4.7253977012        1.8231312394
 H         -1.6758178492       -5.3714455828        1.7337882995
 H         -0.7891928013       -4.1584772912        2.7427601494
 H          0.5143445020       -6.1308467986        0.7284458491
 H          1.3951100999       -4.9161882670        1.7448727889
 H         -0.8035317018       -4.2573396211       -0.3436079106
 O         -1.4777309459       -2.2344911424       -1.6080026905
