  62
        -98.94723920
 C         -2.4717378933       -0.3765284351        0.1937445647
 C         -2.1192737862        0.3239313743       -0.9853347492
 C         -2.0834773440        1.7865946678       -0.8723187219
 C         -2.2923889609        2.3716985423        0.3201899014
 C         -2.2618506360        3.8498059856        0.5989587593
 C         -0.8464770984        4.4088717679        0.8025527913
 C         -0.0107563096        4.5508753292       -0.4706122799
 H         -0.5908066095        5.0774203052       -1.2297930031
 H          0.8463889137        5.1789158189       -0.2194883061
 C          0.5068713971        3.2219423604       -1.0389336565
 H          0.4592478911        2.4522233629       -0.2643127611
 H          1.5607405952        3.3297658314       -1.3090626718
 C         -0.2326416398        2.7345525040       -2.2850190566
 H          0.1750016739        1.7609597909       -2.5675092326
 H         -0.0549150998        3.4282128402       -3.1102838726
 C         -1.7464785955        2.5755233006       -2.1022616690
 H         -2.2256358582        3.5536219745       -2.0642916706
 H         -2.1369555724        2.0262235691       -2.9628372295
 H         -0.3157504766        3.7664817366        1.5103938026
 H         -0.9487027344        5.3967614464        1.2585622852
 H         -2.8300533386        4.0052198531        1.5187333879
 H         -2.7559155454        4.3887189599       -0.2103767986
 O         -2.5781460347        1.6604647858        1.4433880535
 C         -2.6527518109        0.2799856445        1.4112642962
 O         -2.8939016170       -0.2470675087        2.5197929326
 O         -1.8545532045       -0.2331312330       -2.0819763581
 C         -2.4957670011       -1.8990977993        0.2103151930
 C         -1.0602874637       -2.3373266250        0.0557637534
 C         -0.5508793259       -2.9950290276       -1.0552795948
 C          0.8102662034       -3.2286312528       -1.1678440757
 C          1.6886960486       -2.7964651558       -0.1898541074
 C          1.1821907612       -2.1561439083        0.9332999759
 C         -0.1788395762       -1.9514151758        1.0593223823
 H         -0.5640614570       -1.4328621827        1.9290813957
 N          2.0873251623       -1.6266326872        1.9007257659
 S          2.3838657103        0.0043586314        1.5658877540
 O          3.1717881496        0.4984275610        2.6750364612
 O          1.1592800477        0.7265271180        1.2950251770
 C          3.3809986895       -0.1082224747        0.1005547848
 C          2.7829343915        0.0270830305       -1.1363318877
 C          3.5619242698       -0.1207791500       -2.2733510245
 C          4.9137862551       -0.4052568189       -2.1524274006
 C          5.4978925602       -0.5410638942       -0.9016306083
 C          4.7252221877       -0.3941944123        0.2390361255
 H          5.1318118360       -0.4877206633        1.2324105693
 H          6.5490436821       -0.7633411327       -0.8124633787
 H          5.5151001107       -0.5223876000       -3.0401541041
 H          3.1068154086       -0.0188514851       -3.2454260255
 H          1.7263449737        0.2414264315       -1.1853980936
 H          1.7167386595       -1.6815976457        2.8410647922
 H          2.7520827710       -2.9455788562       -0.2834229067
 H          1.1932345118       -3.7334265490       -2.0411740038
 H         -1.2176336167       -3.3017279247       -1.8441206452
 H         -2.8381706785       -2.1872941537        1.2142241395
 C         -3.4436797837       -2.4714019897       -0.8186543498
 C         -3.9226302546       -3.8839132766       -0.6735637895
 C         -4.8637531240       -2.7441995096       -0.4274730007
 H         -5.6425982526       -2.5510322965       -1.1495867306
 H         -5.1511582790       -2.5269535717        0.5912931375
 H         -4.0584655861       -4.4767893510       -1.5649856666
 H         -3.5720102106       -4.4443063258        0.1800101795
 H         -3.2668453601       -2.0898264706       -1.8162620856
