  62
        -98.94513848
 C         -1.5474463496       -0.7726133421        0.0341911072
 C         -2.8135079350       -1.4004713919        0.0935910096
 C         -3.9232916911       -0.5551063024        0.5484652891
 C         -3.6891192384        0.7238012809        0.8956087800
 C         -4.7126004144        1.7028541085        1.4042821071
 C         -5.5123081229        2.4042113497        0.2978132901
 C         -6.5435675622        1.5284979376       -0.4149719306
 H         -7.1818374941        1.0446338132        0.3250461907
 H         -7.1768671750        2.1942496758       -1.0048090106
 C         -5.9386159848        0.4693932953       -1.3471177734
 H         -6.4732601950        0.4740294168       -2.2996962496
 H         -4.8985708081        0.7244944182       -1.5627385162
 C         -5.9938108832       -0.9584882883       -0.8040827155
 H         -5.5056278910       -1.6187415572       -1.5255493892
 H         -7.0349184975       -1.2753392876       -0.7095087307
 C         -5.3014676734       -1.1445845574        0.5523710575
 H         -5.9037484370       -0.7023680775        1.3458324729
 H         -5.2037511343       -2.2163311160        0.7429510383
 H         -6.0377744845        3.2439701420        0.7583962570
 H         -4.8121288000        2.8115742347       -0.4349303498
 H         -5.3982469019        1.1964854203        2.0843588218
 H         -4.1634512779        2.4616739644        1.9656899803
 O         -2.4515500801        1.2841322000        0.8434510045
 C         -1.3522014156        0.5593459770        0.4017986265
 O         -0.2853090325        1.1985499431        0.3901741168
 H          2.3653391830       -1.1499559201       -0.7283286759
 C          2.0634940944       -1.3132121972        0.2916429002
 C          0.7367852938       -1.5613673613        0.6046834405
 C          0.4028753220       -1.8173930496        1.9325895089
 C          1.3680231680       -1.7986481319        2.9198502251
 C          2.6866427372       -1.5151575496        2.6082839770
 C          3.0335924974       -1.2758372584        1.2848326909
 N          4.3626565824       -1.0086506352        0.9341840802
 S          4.7371751939       -0.0534927078       -0.3811328575
 O          4.5652589982       -0.8019470287       -1.6014460873
 O          6.0858988977        0.3991657114       -0.1119580844
 C          3.6170273781        1.3333966706       -0.3471457671
 C          3.5376422403        2.0924104253        0.8025142208
 C          2.6821703777        3.1806848802        0.8276991874
 C          1.9270732863        3.4925675658       -0.2912247076
 C          2.0228087905        2.7246887724       -1.4396490659
 C          2.8741862086        1.6330740392       -1.4697259397
 H          2.9724976810        1.0047945461       -2.3413299578
 H          1.4292366077        2.9664768958       -2.3072733418
 H          1.2542234076        4.3350038946       -0.2664961143
 H          2.6000941393        3.7787117933        1.7211596731
 H          4.1404889017        1.8297605933        1.6568702733
 H          4.9950091655       -0.8648865995        1.7068105858
 H          3.4399063122       -1.4861162490        3.3804867365
 H          1.0917113850       -1.9963048825        3.9446905583
 H         -0.6290334018       -2.0256549875        2.1808437576
 C         -0.3485481254       -1.5702527471       -0.4425157151
 H         -0.7082360738       -2.6034612468       -0.5617023006
 C          0.1166012668       -1.0544805589       -1.7884077789
 C          0.7961013413       -1.9710155694       -2.7598714178
 C         -0.5986046616       -1.4934314632       -3.0294203405
 H         -0.7560105272       -0.7725643537       -3.8176743294
 H         -1.4107690742       -2.1960859078       -2.9119375925
 H          1.6054616701       -1.5821321765       -3.3601049317
 H          0.9310132988       -3.0006909350       -2.4644593107
 H          0.4488818679       -0.0229636138       -1.7397968238
 O         -3.0048037905       -2.6097864242       -0.2078337541
