  62
        -98.94430310
 C          2.1585529701        1.4047951904       -0.0203428808
 C          2.4898600600        0.4308014206       -0.9933745709
 C          3.8216071998       -0.1760613497       -0.8619075210
 C          4.6474604998        0.2108722499        0.1261311192
 C          6.0353107297       -0.3106875204        0.3810747992
 C          6.0704624194       -1.6127784105        1.1930450189
 C          5.6179381792       -2.8632675603        0.4378940987
 H          6.1658220293       -2.9373255803       -0.5020681113
 H          5.8989752190       -3.7245061705        1.0472656785
 C          4.1088971392       -2.9268637900        0.1628026386
 H          3.7350432290       -3.9233442199        0.4093531284
 H          3.5881324193       -2.2217871300        0.8153024587
 C          3.7158153394       -2.6422632796       -1.2869075414
 H          4.1201782193       -3.4222479096       -1.9360831915
 H          2.6254851794       -2.6773970294       -1.3576528015
 C          4.1830454397       -1.2783259596       -1.8116352411
 H          5.2581964697       -1.2917830198       -1.9882275711
 H          3.6746658598       -1.0830634594       -2.7590016111
 H          5.4546191294       -1.4845189106        2.0863185289
 H          7.1016488694       -1.7654937008        1.5197374290
 H          6.5536042098       -0.4571826203       -0.5669071708
 H          6.5584072098        0.4624777094        0.9479579393
 O          4.3034725300        1.1676628898        1.0275489593
 C          3.0562500601        1.7653426801        0.9906700393
 O          2.8679625302        2.6038093900        1.8945525595
 H         -0.3415173501       -0.0833496889       -1.0901168412
 C         -0.7187385502        0.1087805610       -0.0970909112
 C         -0.2285745000        1.1911640908        0.6199299590
 C         -0.7032081900        1.4057530907        1.9091004390
 C         -1.6347322002        0.5496162207        2.4699395788
 C         -2.1142790104       -0.5340322990        1.7564829986
 C         -1.6481751904       -0.7545049889        0.4662769586
 N         -2.1291395805       -1.8504122787       -0.2673345416
 S         -3.7666450106       -2.1798090583       -0.2150838018
 O         -4.0722051908       -2.9352743785        0.9751763280
 O         -4.0650202007       -2.8358253981       -1.4689773519
 C         -4.5699543803       -0.5876638582       -0.1348382116
 C         -4.3057846900        0.3307056119       -1.1316860314
 C         -4.9054025598        1.5778395220       -1.0689608312
 C         -5.7555627498        1.8840691920       -0.0172741212
 C         -6.0151372401        0.9493106719        0.9725363386
 C         -5.4159984903       -0.2989834482        0.9164313984
 H         -5.5856201205       -1.0538510483        1.6670340183
 H         -6.6778148101        1.1890564319        1.7884030386
 H         -6.2177566996        2.8574372521        0.0294574589
 H         -4.7046517396        2.3065770821       -1.8377157511
 H         -3.6425957700        0.0633000219       -1.9386869614
 H         -1.7580092605       -1.9124969886       -1.2036712616
 H         -2.8273436206       -1.2204446190        2.1837515084
 H         -1.9891701603        0.7253408606        3.4741029788
 H         -0.3199798399        2.2409733005        2.4773347092
 C          0.8107321102        2.1104879607        0.0234206993
 H          0.9430668804        2.9550738306        0.7121442294
 C          0.3837605104        2.6556953810       -1.3253261707
 C         -0.6688199594        3.7202687713       -1.3767798505
 C          0.7559963907        4.0584869110       -1.6956483804
 H          1.0225822808        4.2666463212       -2.7211048403
 H          1.3192714908        4.6334263108       -0.9748248602
 H         -1.3827213693        3.6989902715       -2.1855687706
 H         -1.0741683594        4.0676825012       -0.4386589005
 H          0.3961270203        1.9180751212       -2.1162270508
 O          1.7351488600        0.0697455509       -1.9358179310
