  62
        -98.93946243
 C          2.4498483121        1.2149381519       -0.0114852500
 C          3.1215314122        0.4004682342        0.9278972352
 C          3.7230791411       -0.8407471357        0.4112650592
 C          3.5871568750       -1.1363391180       -0.8933232537
 C          4.0566357079       -2.3767913646       -1.6016137216
 C          2.9313174095       -3.4243469648       -1.6577738773
 C          2.8481714956       -4.3475684700       -0.4425048752
 H          1.9362034158       -4.9400710448       -0.5481486019
 H          3.6936046748       -5.0386813645       -0.4576408445
 C          2.8182264340       -3.6416699017        0.9157892685
 H          2.1482202337       -2.7804095732        0.8648468533
 H          2.3918677316       -4.3356361783        1.6431830511
 C          4.2087793350       -3.2037168595        1.4005059209
 H          4.9662267548       -3.6887559365        0.7852438565
 H          4.3628263658       -3.5603467488        2.4209279283
 C          4.4527952351       -1.6867133601        1.4189531242
 H          5.5267502462       -1.4974798665        1.3216712039
 H          4.1503064263       -1.2818451565        2.3899026354
 H          3.0737669400       -4.0455963072       -2.5443706681
 H          1.9823946101       -2.8940621802       -1.7813321732
 H          4.3040710524       -2.0783822710       -2.6223633476
 H          4.9463100575       -2.7800118422       -1.1270897601
 O          2.9215341421       -0.3291091517       -1.7638105713
 C          2.3227649376        0.8493751184       -1.3518518159
 O          1.7298688358        1.4678220224       -2.2548465199
 O          3.2012295311        0.6889569981        2.1541035340
 C          1.7647187442        2.4825001930        0.4710540998
 C          0.2749879334        2.3116888741        0.3002158478
 C         -0.5295478809        3.1758685287       -0.4287105826
 C         -1.8794141794        2.9089243971       -0.5858886219
 C         -2.4542606858        1.7859819698       -0.0199831786
 C         -1.6595240424        0.9203907197        0.7208798302
 C         -0.3116492325        1.1925391188        0.8803120013
 H          0.3084819577        0.5120560895        1.4521645510
 N         -2.2364011525       -0.2314357133        1.2988708431
 S         -2.8633323729       -1.3514239075        0.2073148443
 O         -2.8370382560       -2.6192168696        0.9048510240
 O         -2.1685466848       -1.3010611919       -1.0594063431
 C         -4.5535365000       -0.8309564127        0.0084545099
 C         -5.0206999742       -0.4626320500       -1.2376755128
 C         -6.3400405271       -0.0555107059       -1.3638573662
 C         -7.1627022706       -0.0239916616       -0.2481458583
 C         -6.6780325812       -0.3995921146        0.9961467612
 C         -5.3609434717       -0.8089084937        1.1290877890
 H         -4.9442696365       -1.1131551690        2.0746041515
 H         -7.3208260032       -0.3738382460        1.8612217366
 H         -8.1879168338        0.2952728713       -0.3493319988
 H         -6.7184601268        0.2364696783       -2.3302771385
 H         -4.3410184844       -0.4962751386       -2.0743603218
 H         -1.6085035027       -0.7046486205        1.9344846841
 H         -3.5029923785        1.5725226247       -0.1477794549
 H         -2.4916779036        3.5844509198       -1.1634645715
 H         -0.0977079996        4.0495329637       -0.8879989146
 H          1.9821514012        2.5403078323        1.5477146925
 C          2.3293122776        3.7099262795       -0.2087901383
 C          2.2204736273        5.0483614476        0.4568760996
 C          3.5490733365        4.3615532238        0.3679725446
 H          4.2914679840        4.7552057118       -0.3097985298
 H          3.9649282284        3.9298004462        1.2666996607
 H          2.0522367697        5.9183712094       -0.1593339718
 H          1.7342405899        5.0882867481        1.4197258783
 H          2.2505160463        3.6641181985       -1.2887463066
