  62
        -98.94753234
 C         -1.3321850370       -1.6297290872       -0.4995878001
 C         -1.1920749862       -0.3194845636       -1.0220087622
 C         -2.3801829941        0.5433953626       -0.9192804609
 C         -3.5090520678        0.0632220528       -0.3698609242
 C         -4.7786044876        0.8413702718       -0.1806135240
 C         -4.8257039393        1.5129724029        1.1980658439
 C         -3.5608755786        2.2979461719        1.5463791712
 H         -3.7253757436        2.7667961657        2.5193677738
 H         -2.7233869831        1.6055209098        1.6656371222
 C         -3.1769321714        3.3722655242        0.5198913657
 H         -2.9011730080        4.2829340031        1.0562083925
 H         -4.0360365116        3.6119185812       -0.1085432955
 C         -1.9840077665        2.9984270242       -0.3624146786
 H         -1.1687090368        2.6399936173        0.2727472386
 H         -1.6412905242        3.9064994975       -0.8678331977
 C         -2.2571205888        1.9456696836       -1.4450872265
 H         -3.1463837921        2.2252240666       -2.0145633894
 H         -1.3998184195        1.9351224806       -2.1245363699
 H         -5.6887835990        2.1809017714        1.2274699921
 H         -4.9677804251        0.7397425940        1.9566338236
 H         -4.8579228204        1.5918483837       -0.9646612850
 H         -5.6187655665        0.1497358634       -0.2655157350
 O         -3.6118823155       -1.2015061283        0.1122302456
 C         -2.5295863248       -2.0625031242        0.0782885456
 O         -2.7590375544       -3.1849303131        0.5746771473
 O         -0.1478693740        0.1282356376       -1.5653267737
 C         -0.2085464896       -2.6569346240       -0.4890920442
 C          0.7148148883       -2.4080740538        0.6790892708
 C          0.8973438189       -3.3632791756        1.6721040422
 C          1.7306114427       -3.1067183532        2.7468699604
 C          2.3822706634       -1.8915376509        2.8594321977
 C          2.2041850755       -0.9301402838        1.8707931188
 C          1.3905972184       -1.2011014583        0.7817061449
 H          1.2499828481       -0.4494350186        0.0234789811
 N          2.8553896681        0.3094427626        1.9348276756
 S          2.0982990672        1.6790896761        1.3347887667
 O          2.7965749526        2.7782314954        1.9743587440
 O          0.6722192593        1.6420777791        1.5647265297
 C          2.4869124336        1.7149497437       -0.4021470919
 C          3.5268494013        0.9554711942       -0.8977834991
 C          3.8275237119        1.0356966149       -2.2480552263
 C          3.0933578443        1.8723960200       -3.0735330539
 C          2.0587743114        2.6354758166       -2.5571967741
 C          1.7523070525        2.5590445788       -1.2086507728
 H          0.9469627921        3.1270967811       -0.7722954216
 H          1.4839194991        3.2833978368       -3.1997349145
 H          3.3247950088        1.9267634111       -4.1258699294
 H          4.6299388052        0.4393125920       -2.6523149016
 H          4.0724100072        0.3039574736       -0.2353107945
 H          3.3582316748        0.4966846438        2.7895445685
 H          3.0189101604       -1.6845669646        3.7062761751
 H          1.8642253129       -3.8556610584        3.5128562109
 H          0.3670503574       -4.3021861742        1.6068560713
 H         -0.6961584476       -3.6285728431       -0.3310953719
 C          0.5703474912       -2.7157023691       -1.7890205254
 C          1.3346270421       -3.9608361594       -2.1199639352
 C          0.0951222381       -3.6149372951       -2.8883852017
 H          0.1943591960       -3.2763355128       -3.9085628160
 H         -0.7971426460       -4.1970488007       -2.7073474718
 H          2.2890866246       -3.8620775375       -2.6132455658
 H          1.2829412757       -4.7813268300       -1.4202514051
 H          1.0018887961       -1.7657596867       -2.0744804958
