  62
        -98.94007924
 C         -2.5937696708       -1.1631740412        0.2915134047
 C         -2.5897358893       -0.3374664955       -0.8601579995
 C         -3.5035055053        0.8162601099       -0.8237319833
 C         -4.2594608702        1.0314624731        0.2672594281
 C         -5.1899908265        2.1940825134        0.4534542274
 C         -4.4774588062        3.3726541344        1.1316905105
 C         -3.1356227189        3.7333775898        0.4938497481
 H         -2.7398839716        4.5954997956        1.0353506108
 H         -2.4343561261        2.9093902251        0.6471305496
 C         -3.2118168367        4.0604788244       -1.0041228323
 H         -2.6181215226        4.9564974911       -1.1966071547
 H         -4.2417298562        4.2888371676       -1.2806302419
 C         -2.6719752176        2.9623515194       -1.9224962394
 H         -1.6743592415        2.6627410722       -1.5907845702
 H         -2.5704047771        3.3801756282       -2.9274875222
 C         -3.5390706050        1.7022864780       -2.0371407302
 H         -4.5659381136        1.9822574935       -2.2805992008
 H         -3.1409368217        1.1006095496       -2.8593611127
 H         -5.1402526507        4.2393616759        1.1035431739
 H         -4.3005862178        3.1144648847        2.1785844986
 H         -5.5791218563        2.4998266727       -0.5157127922
 H         -6.0206912848        1.8722249399        1.0838171374
 O         -4.2190683089        0.2303745934        1.3634859111
 C         -3.3744977542       -0.8669590394        1.4110980126
 O         -3.4030971480       -1.4867988678        2.4939170034
 O         -1.8682525368       -0.5393860361       -1.8693921124
 C         -1.6846071221       -2.3750417337        0.4023186177
 C         -0.2929158524       -2.0213820408       -0.0646142784
 C          0.3901522918       -2.7108636887       -1.0567520820
 C          1.6725414386       -2.3328626125       -1.4156702254
 C          2.2990592350       -1.2658698127       -0.7997551583
 C          1.6265797525       -0.5700771299        0.1967151777
 C          0.3472837618       -0.9576853281        0.5612468697
 H         -0.1764305010       -0.4159462351        1.3413125459
 N          2.2519359888        0.5274486542        0.8185396674
 S          3.7666934529        0.2731759970        1.5006081312
 O          3.9225988344       -1.0935182894        1.9431899591
 O          3.9007604709        1.2954685584        2.5158914207
 C          4.9031951877        0.6194380750        0.1750561299
 C          5.8337555971       -0.3304363656       -0.1981095617
 C          6.7165986528       -0.0355905481       -1.2254630848
 C          6.6539223586        1.1972412496       -1.8567249037
 C          5.7149297308        2.1412238942       -1.4679182739
 C          4.8303122513        1.8534706246       -0.4408806773
 H          4.0882790610        2.5594151176       -0.1067877905
 H          5.6689863244        3.0987004718       -1.9613635654
 H          7.3409506220        1.4241667646       -2.6566000608
 H          7.4474716702       -0.7677630628       -1.5289762580
 H          5.8404389281       -1.2772665639        0.3178261462
 H          1.6545906626        1.0151103691        1.4706869079
 H          3.2940120148       -0.9642622193       -1.0837987424
 H          2.1890248063       -2.8739801403       -2.1937316043
 H         -0.0880636597       -3.5314673264       -1.5652845339
 H         -1.6249837793       -2.5859688812        1.4838341647
 C         -2.2397657615       -3.6332163142       -0.2489564714
 C         -3.7168618564       -3.8354233565       -0.4049698598
 C         -2.8577403937       -3.6247588733       -1.6135417723
 H         -2.6752006243       -4.4684137975       -2.2630194502
 H         -2.9137821127       -2.6796182090       -2.1291589723
 H         -4.1201547653       -4.8201491129       -0.2219085648
 H         -4.3688269550       -3.0328763728       -0.0911114558
 H         -1.6643720251       -4.5134685466        0.0213468707
