  62
        -98.93877092
 C         -1.4299399233       -1.5487831362        0.5150574986
 C         -2.2270649486       -1.0235884714       -0.5280119608
 C         -3.1620049999        0.0662101915       -0.1673503817
 C         -3.1290443249        0.5695510571        1.0799080806
 C         -3.9587979241        1.6771971276        1.6774023734
 C         -3.5584269061        3.0765014572        1.1892213802
 C         -3.3771630016        3.1950308811       -0.3206157551
 H         -3.0283442068        4.2088058474       -0.5332547153
 H         -2.5985992615        2.5023957607       -0.6411315556
 C         -4.6369829384        2.9448376605       -1.1456810881
 H         -4.4065390491        3.2166869293       -2.1787407371
 H         -5.4345738477        3.6057632826       -0.8001236961
 C         -5.1528805894        1.5026844790       -1.1436166257
 H         -5.8333287408        1.3984396936       -1.9934503309
 H         -5.7395966482        1.2895373720       -0.2536228025
 C         -4.0677004013        0.4442974225       -1.3149628703
 H         -4.5423433095       -0.4941886880       -1.6248459721
 H         -3.4153315946        0.7221271945       -2.1501822523
 H         -4.3182460381        3.7847179011        1.5246828374
 H         -2.6141070343        3.3504437999        1.6670227583
 H         -5.0127996413        1.4958968463        1.4871159129
 H         -3.8055989113        1.6291310887        2.7581572352
 O         -2.2507429825        0.1090638809        2.0199489373
 C         -1.4119845038       -0.9576270716        1.7797782009
 O         -0.7006179704       -1.2822065698        2.7539183832
 O         -2.1962288694       -1.4381522149       -1.7148685381
 C         -0.4910840878       -2.7305771363        0.3122906783
 C          0.7762397850       -2.2053112412       -0.3159324374
 C          0.9789916581       -2.1426163313       -1.6888624311
 C          2.1324696047       -1.5708883659       -2.1986036797
 C          3.0975360702       -1.0450699585       -1.3577723439
 C          2.8975481930       -1.0977126834        0.0157273316
 C          1.7490185253       -1.6812283183        0.5260750647
 H          1.5841377968       -1.7040902047        1.5955253860
 N          3.8510524661       -0.5215964368        0.8798432210
 S          4.2372306848        1.0749173991        0.5479900836
 O          5.2809305373        1.1166350016       -0.4455892585
 O          4.5634406013        1.6718371350        1.8242069214
 C          2.7452619715        1.7885454231       -0.1251773346
 C          1.5849682772        1.7167627647        0.6204128813
 C          0.4146877615        2.2325698455        0.0893795594
 C          0.4240861062        2.8146765406       -1.1687587646
 C          1.5978687866        2.8843672135       -1.9022239709
 C          2.7700173437        2.3621903220       -1.3797892084
 H          3.7026446554        2.3845191918       -1.9195872816
 H          1.6003814017        3.3376464321       -2.8802841197
 H         -0.4899256217        3.2151943673       -1.5781438530
 H         -0.4991771152        2.1663397618        0.6592050437
 H          1.5971392412        1.2614092816        1.5986931787
 H          3.6140389688       -0.6277613439        1.8562919711
 H          3.9953737408       -0.5861439841       -1.7396438897
 H          2.2789606259       -1.5270691667       -3.2669013625
 H          0.2190168605       -2.5172635543       -2.3546340436
 H         -0.2376475894       -3.0822858881        1.3218874291
 C         -1.1225048553       -3.8756566774       -0.4487381853
 C         -0.4540355414       -5.2161324586       -0.4199162675
 C         -1.7432019761       -5.0053776176        0.3144089760
 H         -2.6412159001       -5.4591273702       -0.0772859968
 H         -1.7144540130       -4.9593622031        1.3936743557
 H         -0.4644297574       -5.8173930086       -1.3158794370
 H          0.4510749607       -5.3100369874        0.1614667602
 H         -1.6115917357       -3.5731257055       -1.3645646980
