  62
        -98.94103523
 C         -2.5696568162       -0.2022033176        0.4976308620
 C         -2.2123451307        0.3395287043       -0.7622066769
 C         -2.0263545285        1.7979889053       -0.8051238223
 C         -2.2026627555        2.5233866450        0.3126035621
 C         -2.0595924370        4.0149721870        0.4051596903
 C         -0.6454467505        4.4330464657        0.8271340887
 C          0.4704766717        3.7707579121        0.0188676032
 H          1.4148403641        4.1997698301        0.3629028580
 H          0.5067627049        2.7038765416        0.2514485735
 C          0.3543538485        3.9484399433       -1.5012606764
 H         -0.2997248669        4.7911629164       -1.7304325592
 H          1.3435743117        4.1870184775       -1.8972769229
 C         -0.1347598774        2.7025405502       -2.2433422167
 H          0.4172082817        1.8301134552       -1.8831593631
 H          0.0899147926        2.8259554209       -3.3063799825
 C         -1.6347200733        2.4022673483       -2.1235247977
 H         -2.2121421246        3.3076837379       -2.3241032587
 H         -1.8891170796        1.6557220729       -2.8816503363
 H         -0.5690005066        5.5186118330        0.7343529490
 H         -0.5051086042        4.1707879375        1.8786319859
 H         -2.3054434853        4.4536706570       -0.5602284584
 H         -2.7707510306        4.3778775073        1.1500277563
 O         -2.5269786107        1.9673650314        1.5096995030
 C         -2.6756816765        0.5962767482        1.6372270541
 O         -2.9088223405        0.2145277517        2.8039821830
 H         -0.1680676804       -1.0932816118        0.8877975076
 C         -0.3088161264       -1.9494048659        0.2423897012
 C         -1.5954973854       -2.4276600119        0.0213649605
 C         -1.7562495653       -3.5429890124       -0.7882256987
 C         -0.6533899403       -4.1486642071       -1.3680829981
 C          0.6188580424       -3.6459369509       -1.1768238159
 C          0.7884742900       -2.5188131331       -0.3769036299
 N          2.0597872447       -1.9373608094       -0.2343990759
 S          2.3144573946       -0.5735345900        0.7023851911
 O          2.1720803301       -0.8795013276        2.1120897486
 O          1.5063203698        0.5031997114        0.1926449970
 C          4.0300766356       -0.2739792384        0.3240064027
 C          4.3396145538        0.4436404004       -0.8155144939
 C          5.6715919027        0.6547661299       -1.1341760499
 C          6.6670341564        0.1461033739       -0.3130812139
 C          6.3415798278       -0.5698726503        0.8290464379
 C          5.0109920972       -0.7843241895        1.1529002560
 H          4.7106925263       -1.3240468324        2.0366688257
 H          7.1174335573       -0.9605572589        1.4675067125
 H          7.7029599965        0.3118660240       -0.5632273223
 H          5.9274278759        1.2143382727       -2.0193961338
 H          3.5312006754        0.8254788862       -1.4175075823
 H          2.8293262996       -2.5893985564       -0.2224821514
 H          1.4730103242       -4.1048878744       -1.6495320237
 H         -0.7914299531       -5.0189933465       -1.9917551222
 H         -2.7427963313       -3.9308354094       -0.9816574007
 C         -2.7300143421       -1.6996311218        0.7024386572
 H         -2.6123068429       -1.8484470399        1.7901099699
 C         -4.1052064149       -2.2402427641        0.3366702141
 C         -5.3007821272       -1.3388489099        0.2651283944
 C         -4.7458545052       -1.9476128962       -0.9856146399
 H         -5.3117958499       -2.7321907843       -1.4662172435
 H         -4.2009038232       -1.3156817022       -1.6685026099
 H         -5.1434562165       -0.2834542314        0.4361780184
 H         -6.2410967244       -1.7071859879        0.6474385714
 H         -4.2791041760       -3.2263433631        0.7563902784
 O         -2.0698471608       -0.3462281611       -1.8075218108
