  62
        -98.94249028
 C         -1.5440263442       -1.3797504717        0.2661247296
 C         -2.0120091838       -0.8688330263       -0.9694013092
 C         -2.8730318567        0.3209555714       -0.8806807233
 C         -3.1944869547        0.8187472574        0.3271423278
 C         -3.9987429993        2.0655836404        0.5533293133
 C         -3.0874412130        3.2961271883        0.6644143725
 C         -2.0410597541        3.3919072878       -0.4463040945
 H         -1.4674295479        4.3059612587       -0.2774459540
 H         -1.3442031538        2.5547402734       -0.3546767541
 C         -2.6270418971        3.4149646913       -1.8655176132
 H         -3.6841498093        3.6800962532       -1.8245049106
 H         -2.1203600991        4.1928418070       -2.4409608432
 C         -2.4660748923        2.1091460709       -2.6466338255
 H         -2.7225927695        2.3050852221       -3.6912267023
 H         -1.4191600341        1.7934412297       -2.6242933500
 C         -3.3325394046        0.9350511445       -2.1727915205
 H         -4.3755935748        1.2499560315       -2.1059775260
 H         -3.2591628190        0.1438612756       -2.9248851559
 H         -2.5678159778        3.2528654154        1.6237625403
 H         -3.7111146252        4.1916770286        0.6557557474
 H         -4.7026282676        2.1930662002       -0.2666030251
 H         -4.5567728544        1.9523029813        1.4841114251
 O         -2.7730773644        0.2654500482        1.4919149752
 C         -1.9282108018       -0.8331943680        1.4913631668
 O         -1.5968924335       -1.2275343881        2.6259938069
 H          0.3881568146       -0.1516433468       -0.5726897249
 C          1.0987116210       -0.9586496564       -0.6975603445
 C          0.7497550834       -2.2465388478       -0.3213887308
 C          1.6952010238       -3.2547178509       -0.4906666563
 C          2.9466980901       -2.9774167783       -1.0102919644
 C          3.2860462857       -1.6888069443       -1.3863792580
 C          2.3458140203       -0.6819889901       -1.2401792788
 N          2.6944818514        0.6455052554       -1.6043552896
 S          3.5172062647        1.4618608931       -0.3928939806
 O          3.6728072793        2.8216099365       -0.8553628792
 O          4.7259339932        0.7358295125       -0.1024206037
 C          2.4094273100        1.4096115706        1.0033545691
 C          2.4206021942        0.2996597833        1.8249535293
 C          1.4801255779        0.2086956431        2.8382304085
 C          0.5483308921        1.2204423091        3.0103922347
 C          0.5526692178        2.3293254565        2.1784999658
 C          1.4852709105        2.4232266273        1.1580067352
 H          1.5184520037        3.2669562068        0.4866997548
 H         -0.1720943556        3.1160398611        2.3163780786
 H         -0.1938837464        1.1292359889        3.7876868754
 H          1.4575542520       -0.6568656167        3.4802064828
 H          3.1611407117       -0.4665594901        1.6601727021
 H          1.8924644393        1.1997646825       -1.8720342423
 H          4.2597021269       -1.4467808513       -1.7793322121
 H          3.6673843314       -3.7724631591       -1.1243245803
 H          1.4451903254       -4.2641808429       -0.2054657102
 C         -0.5902402362       -2.5538658304        0.3093568606
 H         -0.4131881647       -2.7565566626        1.3763046055
 C         -1.2226184551       -3.7867662845       -0.3149225893
 C         -1.0419805267       -5.1387367544        0.3050012017
 C         -2.3679442726       -4.4468595527        0.3909447861
 H         -3.1916234525       -4.8209540128       -0.1981458342
 H         -2.6657426070       -4.0316760265        1.3432584880
 H         -0.9524279996       -5.9954505508       -0.3457500904
 H         -0.4577539977       -5.2062851963        1.2106852824
 H         -1.2759900297       -3.7243712029       -1.3953335614
 O         -1.7143015937       -1.3592987580       -2.0900048110
