  62
        -98.93193801
 C          2.0750198930        1.1642697176       -0.4626679870
 C          3.1999227922        0.8568702466        0.3462867281
 C          3.9354961768       -0.3701902537        0.0198540501
 C          3.5217781383       -1.1329905259       -1.0073527898
 C          4.1774131279       -2.3873742993       -1.5233495507
 C          4.2053794013       -3.5912869760       -0.5623337963
 C          5.4855367453       -3.7028000153        0.2752710290
 H          5.7771207401       -4.7534570898        0.3317631369
 H          6.2906581563       -3.1815438785       -0.2438587299
 C          5.3873752071       -3.1880177944        1.7143513701
 H          4.8670514631       -3.9301098252        2.3240062403
 H          6.4025775280       -3.0936525637        2.1056467028
 C          4.6612553498       -1.8551165298        1.8970393792
 H          4.8321990518       -1.5104123367        2.9187635020
 H          3.5832853116       -2.0056650582        1.7991164162
 C          5.0844553652       -0.7529588362        0.9070332158
 H          5.3677468006        0.1490740766        1.4529832665
 H          5.9360837884       -1.0769312253        0.3106463676
 H          4.1225558226       -4.4877228904       -1.1790464444
 H          3.3265922521       -3.5613096064        0.0815092700
 H          5.1976163273       -2.1459615379       -1.8310937193
 H          3.6146011645       -2.6592290111       -2.4188191624
 O          2.4371669883       -0.8069046674       -1.7610462118
 C          1.6822020857        0.3334589760       -1.5129195120
 O          0.7293458342        0.4728098582       -2.3049805559
 O          3.5858087154        1.5948756684        1.2928924461
 C          1.3349496248        2.4424720743       -0.1145936349
 C          0.1922493608        2.1984031611        0.8434353348
 C          0.0653900039        2.9706817943        1.9923300767
 C         -1.0035421315        2.7860174980        2.8504240207
 C         -1.9676839909        1.8356122499        2.5727617510
 C         -1.8432667730        1.0469494345        1.4326309252
 C         -0.7657074305        1.2296305873        0.5775089527
 H         -0.6851162467        0.6169478054       -0.3079566538
 N         -2.7905355584        0.0480308771        1.1658626586
 S         -3.0781989367       -0.4550514072       -0.4182998080
 O         -2.1051135416       -1.4601653021       -0.7642154824
 O         -3.1935466573        0.6885966026       -1.2934671777
 C         -4.6796576484       -1.2148399857       -0.2100658074
 C         -4.7522245788       -2.5276687125        0.2154392138
 C         -5.9987655837       -3.1032258194        0.4049516940
 C         -7.1461431152       -2.3608027325        0.1681981597
 C         -7.0582606109       -1.0450100763       -0.2609454487
 C         -5.8146442059       -0.4635799419       -0.4515331046
 H         -5.6965028329        0.5517593351       -0.7943884678
 H         -7.9514818632       -0.4712044177       -0.4483927451
 H         -8.1147599190       -2.8115455600        0.3156854506
 H         -6.0705356461       -4.1270669785        0.7347866407
 H         -3.8332165766       -3.0668769444        0.3767587776
 H         -3.6445962314        0.1553263884        1.6952934181
 H         -2.8070868179        1.6933599160        3.2360047088
 H         -1.0907587823        3.3920452589        3.7392272836
 H          0.8182246659        3.7123567810        2.2140234851
 H          2.0746467468        3.0673288443        0.4062239006
 C          0.8222020318        3.2121080554       -1.3164215207
 C          0.6632122436        4.6986147836       -1.2175484656
 C          1.7539888694        4.1155675387       -2.0640745048
 H          1.6648695284        4.1678899060       -3.1386108139
 H          2.7708929361        4.1867091912       -1.7061452836
 H         -0.1809253048        5.1565437653       -1.7097319447
 H          0.9434768959        5.1729183269       -0.2893798263
 H          0.0876996590        2.6636110414       -1.8930538543
