  62
        -98.93896621
 C         -1.8631529294       -0.7696444696       -0.1148148196
 C         -2.3968016492       -0.0648975800        0.9879508508
 C         -3.5062257492        0.8606643001        0.7022533912
 C         -3.9165485295        1.0128140205       -0.5690926086
 C         -5.0618477795        1.8515682807       -1.0645841482
 C         -6.3460428196        1.0101818007       -1.1617962882
 C         -7.1714472693        0.9425442603        0.1226073419
 H         -7.6390917993        1.9134023302        0.2996657023
 H         -7.9726761094        0.2190016803       -0.0443954382
 C         -6.3971116191        0.5366073899        1.3793789416
 H         -5.7230890092       -0.2894905801        1.1457133613
 H         -7.1180406590        0.1681342696        2.1117596216
 C         -5.6065487490        1.6966456297        2.0025258619
 H         -5.9384635391        2.6338237998        1.5558834222
 H         -5.8399332788        1.7621426593        3.0672733119
 C         -4.0785151290        1.5846778497        1.8906251916
 H         -3.6439780990        2.5894672697        1.9299925418
 H         -3.6892719489        1.0429707594        2.7584796513
 H         -6.0622781396        0.0009666108       -1.4712084486
 H         -6.9787279097        1.4265119509       -1.9482853780
 H         -5.2078882894        2.7205462104       -0.4297564579
 H         -4.7899874697        2.1892682910       -2.0668766381
 O         -3.3438080196        0.3481466708       -1.6096891089
 C         -2.3099621796       -0.5535979892       -1.4183863394
 O         -1.8865424998       -1.0803501289       -2.4635597097
 H          0.3648642307        0.6376231602        0.3641713805
 C          0.9462452206        0.0171585104       -0.3066745798
 C          0.5206730406       -1.2813162895       -0.5633515601
 C          1.2840488404       -2.0718346792       -1.4112071005
 C          2.4243004803       -1.5609318890       -2.0087386406
 C          2.8333000603       -0.2632721691       -1.7665648902
 C          2.0870334305        0.5301302806       -0.9031179998
 N          2.5070841905        1.8432145105       -0.6310146495
 S          4.1302566606        2.0885590604       -0.3034581497
 O          4.1730999607        3.2596522102        0.5441398407
 O          4.8659503104        2.1817647108       -1.5398703598
 C          4.6493404807        0.6396657401        0.5996104098
 C          5.6383979607       -0.1751417097        0.0879042593
 C          5.9996506908       -1.3132169599        0.7912317389
 C          5.3652639710       -1.6173290803        1.9854271789
 C          4.3757898111       -0.7863750905        2.4886178494
 C          4.0123859710        0.3538451798        1.7911008298
 H          3.2490723810        1.0213537796        2.1585153701
 H          3.8825798512       -1.0235189808        3.4177314494
 H          5.6427959311       -2.5062740705        2.5294459886
 H          6.7702827207       -1.9598611798        0.4038346986
 H          6.1025448705        0.0969202506       -0.8459934606
 H          1.9209245406        2.3334672703        0.0280291108
 H          3.7093534103        0.1529208911       -2.2368405302
 H          3.0010890402       -2.1827656688       -2.6759437209
 H          0.9818396604       -3.0854810792       -1.6147367308
 C         -0.7361539393       -1.7590905297        0.1218423899
 H         -0.5565579391       -1.7381190501        1.2070712599
 C         -1.1567068794       -3.1577787896       -0.2748852405
 C         -0.5263154093       -4.3470855398        0.3841047091
 C         -1.9445096792       -3.9802666299        0.6988814294
 H         -2.7382344693       -4.6068234198        0.3204220493
 H         -2.1592626491       -3.5400913402        1.6618470696
 H          0.2237423309       -4.1609000900        1.1375317290
 H         -0.3467864694       -5.2306448096       -0.2094132713
 H         -1.4250340796       -3.2317448993       -1.3225468004
 O         -1.9649385990       -0.2032205804        2.1656107906
