  62
        -98.94877817
 C         -1.8166217338       -1.3313392556       -0.2496201093
 C         -2.8870421204       -0.6411489454        0.3636109977
 C         -3.2557174709        0.6394766635       -0.2471559715
 C         -2.5877110259        1.0796613377       -1.3293947835
 C         -2.8334681518        2.3751219153       -2.0532310807
 C         -2.1082244072        3.5679392273       -1.4145164924
 C         -2.7272289672        4.0781306163       -0.1125061863
 H         -2.2751352796        5.0495602837        0.0977314858
 H         -3.7973971592        4.2373456058       -0.2532719779
 C         -2.4922787856        3.1586448427        1.0941949941
 H         -2.1813693964        3.7596548074        1.9530020768
 H         -1.6648480701        2.4794631759        0.8712918379
 C         -3.7166154326        2.3500288357        1.5260020330
 H         -3.4240249151        1.7056063062        2.3595144177
 H         -4.4939174460        3.0294842716        1.8839030492
 C         -4.3133296506        1.4608820886        0.4270594998
 H         -5.0233523821        0.7726038943        0.8929293070
 H         -4.8442173283        2.0714001106       -0.3027952351
 H         -1.0688015125        3.2836653893       -1.2289127288
 H         -2.1107971688        4.3841349444       -2.1410151676
 H         -3.9037399315        2.5777027947       -2.1039157293
 H         -2.4530065262        2.2432228618       -3.0683425732
 O         -1.5881941212        0.3700911389       -1.9111816104
 C         -1.1346819387       -0.8114322993       -1.3508181015
 O         -0.1481578179       -1.3085749738       -1.9279421623
 O         -3.4943837201       -1.0688524347        1.3845706954
 C         -1.2889593547       -2.6040778375        0.3927029011
 C          0.1481282859       -2.3610037036        0.7819152343
 C          1.1979942325       -3.2148261319        0.4714946936
 C          2.5055433488       -2.8540523085        0.7525455614
 C          2.7949442770       -1.6264095286        1.3205117561
 C          1.7481626384       -0.7805707166        1.6603672737
 C          0.4412047715       -1.1641257035        1.4252597345
 H         -0.3650575422       -0.4881367519        1.6839102618
 N          2.0458024410        0.5303382851        2.1415167478
 S          1.9211159019        1.6346673282        0.8632893077
 O          2.2597139955        2.9251066274        1.4268026285
 O          0.6254450262        1.5651162989        0.2227656781
 C          3.2079818037        1.0756856562       -0.2243782480
 C          4.4989524360        1.5012698719        0.0228859272
 C          5.5250014911        1.0269557619       -0.7775656498
 C          5.2429046821        0.1340131457       -1.8010020930
 C          3.9415810162       -0.2833931258       -2.0336949607
 C          2.9076914761        0.1884354046       -1.2388491993
 H          1.8860377534       -0.1252464744       -1.3955703831
 H          3.7171636910       -0.9799067827       -2.8255255005
 H          6.0415615376       -0.2399716159       -2.4220906452
 H          6.5380416437        1.3500752523       -0.5998421098
 H          4.6647886154        2.1963055642        0.8295036564
 H          1.4086799047        0.8301359426        2.8688495842
 H          3.8105023437       -1.3118990703        1.4973242039
 H          3.3106518387       -3.5247901176        0.4957983909
 H          0.9932331984       -4.1551943466       -0.0137205459
 H         -1.8881489845       -2.7469078075        1.3042478638
 C         -1.4807186600       -3.7981842695       -0.5164327567
 C         -1.6188371019       -5.1733414947        0.0640028123
 C         -2.8098648402       -4.4895160800       -0.5349504123
 H         -3.1916749864       -4.8461396457       -1.4796462639
 H         -3.5738326517       -4.1116443934        0.1288213088
 H         -1.1852500066       -6.0046758263       -0.4707773531
 H         -1.5779380451       -5.2688181389        1.1384595475
 H         -0.9605775520       -3.6874580989       -1.4611622892
