  62
        -98.92971029
 C          2.5095563560        1.1204766118       -0.3283490461
 C          2.5651956364       -0.2278112333        0.0947630691
 C          3.8914360732       -0.7434203124        0.5016329661
 C          4.9480390775        0.0890821732        0.4905750784
 C          6.3853293150       -0.2167711343        0.8186750346
 C          7.0981579748       -0.9880412192       -0.3038051404
 C          6.2911952216       -2.1339567645       -0.9083447048
 H          5.3513290472       -1.7422346500       -1.3015069651
 H          6.8579580173       -2.5277566775       -1.7561489805
 C          6.0004109401       -3.2953535662        0.0391546299
 H          5.5039659672       -4.0740397097       -0.5454889828
 H          6.9449765438       -3.7055658208        0.4032789322
 C          5.1147445609       -2.9707083378        1.2442194291
 H          4.7943381936       -3.9224266061        1.6781719939
 H          5.6768622916       -2.4542652509        2.0176510645
 C          3.8435916744       -2.1960751761        0.9105627132
 H          3.3052500699       -2.7186950337        0.1115867713
 H          3.1732875233       -2.2331597247        1.7780725559
 H          8.0425199873       -1.3706237994        0.0870165990
 H          7.3264205952       -0.2820511842       -1.1061546873
 H          6.8865245747        0.7445235421        0.9524922306
 H          6.4476208336       -0.7553391872        1.7595708440
 O          4.8366264260        1.3968432494        0.1173274674
 C          3.6367285259        1.9440222593       -0.2880669401
 O          3.6953072382        3.1566805183       -0.5763147914
 H         -1.1450542516        0.3754105510       -1.1617987447
 C         -1.0320267273        0.7392862763       -0.1523069007
 C          0.1080981794        1.4406237881        0.2040563550
 C          0.2369595997        1.8756333203        1.5205063807
 C         -0.7435814778        1.6046000677        2.4547607620
 C         -1.8767968040        0.8953654389        2.0974952417
 C         -2.0164921739        0.4582686349        0.7879527567
 N         -3.1570285654       -0.2812697654        0.4219298406
 S         -4.6517692351        0.3073892050        0.9432683179
 O         -4.7428459302        1.7276493216        0.6838383251
 O         -4.8537622964       -0.0946553092        2.3126744953
 C         -5.7643154113       -0.5925703037       -0.1189485695
 C         -6.2534893822        0.0147876283       -1.2598375184
 C         -7.1000912195       -0.7026440214       -2.0903771262
 C         -7.4382552834       -2.0086521335       -1.7692671020
 C         -6.9390484300       -2.6045700104       -0.6204722974
 C         -6.0933528163       -1.8926122588        0.2150820233
 H         -5.6888680640       -2.3107679135        1.1219498888
 H         -7.2067267123       -3.6191872987       -0.3731742870
 H         -8.0974377221       -2.5647074025       -2.4170555600
 H         -7.4923438852       -0.2412597807       -2.9823788418
 H         -5.9711737605        1.0350244349       -1.4651878614
 H         -3.1736416592       -0.4852967080       -0.5682206208
 H         -2.6522652614        0.6788813266        2.8145215319
 H         -0.6270383882        1.9473149840        3.4723780616
 H          1.1245862664        2.4268588792        1.8027454008
 C          1.2111761511        1.7732341220       -0.7707786998
 H          1.4030962198        2.8565795978       -0.6941584824
 C          0.8406740192        1.5059066680       -2.2220295209
 C          1.9025446019        1.2772125660       -3.2550907972
 C          0.9897603678        0.1579221026       -2.8587184386
 H          0.2374241425       -0.1603641061       -3.5659705085
 H          1.3834517862       -0.6404593068       -2.2504411355
 H          1.7764185913        1.7273225735       -4.2283013510
 H          2.9285818129        1.2481880053       -2.9178734660
 H         -0.0111073731        2.1027275466       -2.5350560093
 O          1.5668169129       -0.9927598502        0.1298829938
