  62
        -98.94057797
 C         -1.3039575458       -1.2361251255        0.0766947808
 C         -2.2468760387       -0.8754624895        1.0638841406
 C         -2.9189445382        0.4229625204        0.8854148526
 C         -2.5938569371        1.1970946506       -0.1671794449
 C         -3.0700252507        2.5818929133       -0.5529177712
 C         -4.3865400031        3.1365915911       -0.0119932479
 C         -5.6365541153        2.3684202245       -0.4360379906
 H         -6.4974636251        2.8285020571        0.0544485898
 H         -5.7695813375        2.4809548818       -1.5148816911
 C         -5.6292435218        0.8739032814       -0.1228128792
 H         -6.5984978947        0.4656695312       -0.4219332505
 H         -4.8711610646        0.3745485123       -0.7296262939
 C         -5.4062051622        0.5126170675        1.3453389785
 H         -6.1188333253        1.0543536883        1.9701592435
 H         -5.6127355884       -0.5555466302        1.4531659067
 C         -3.9852656364        0.7636406433        1.8853157842
 H         -3.8279717754        0.1026461621        2.7427462737
 H         -3.8680710777        1.7862467142        2.2373196083
 H         -4.3477158717        3.2186116922        1.0703928969
 H         -4.4763709868        4.1540693518       -0.4026449584
 H         -2.2686105550        3.2693894006       -0.2601762093
 H         -3.1034397631        2.5870489772       -1.6463855912
 O         -1.6551290583        0.8165834681       -1.0812596409
 C         -0.9997431289       -0.4013843465       -0.9984493771
 O         -0.1907897207       -0.6158274044       -1.9173641701
 O         -2.5072688398       -1.5979964655        2.0650553369
 C         -0.5639931615       -2.5554470261        0.1969664736
 C          0.9233877876       -2.3030878402        0.2077323721
 C          1.8313359800       -3.0315676640       -0.5486536318
 C          3.1801734169       -2.7190679790       -0.5202685711
 C          3.6531544979       -1.6805338217        0.2600336882
 C          2.7541493639       -0.9539656115        1.0303039635
 C          1.4067413893       -1.2733860321        1.0063150377
 H          0.7100251208       -0.7005262585        1.6066239397
 N          3.2211711026        0.1181050353        1.8218967902
 S          3.9540838069        1.3766560254        0.9898825011
 O          5.2468179210        0.9388183411        0.5283267732
 O          3.9504825936        2.4927577699        1.9092492495
 C          2.8881262193        1.7129874661       -0.3979323502
 C          3.1341801394        1.0997476185       -1.6093688407
 C          2.2671017375        1.3311661772       -2.6641138238
 C          1.1765560170        2.1676130837       -2.4914100385
 C          0.9445722551        2.7774182897       -1.2690371087
 C          1.8020342201        2.5433653048       -0.2071888793
 H          1.6558916577        3.0008241233        0.7590667320
 H          0.0922461297        3.4254841705       -1.1403124586
 H          0.4965970697        2.3371142003       -3.3108309224
 H          2.4359618066        0.8495066711       -3.6132749282
 H          3.9954209709        0.4592671452       -1.7058879402
 H          2.5074804188        0.4958963859        2.4294934790
 H          4.6967197210       -1.4106766429        0.2780493240
 H          3.8726279623       -3.2900650451       -1.1198931463
 H          1.4827953922       -3.8390559413       -1.1711424077
 H         -0.8538570942       -2.9707325235        1.1737809183
 C         -1.0079733124       -3.5117746846       -0.8900399982
 C         -0.9800931447       -4.9918188696       -0.6552699959
 C         -2.2898764118       -4.2661043230       -0.7095507322
 H         -2.9282491144       -4.4126801566       -1.5678993775
 H         -2.8297315460       -4.1112966173        0.2133434342
 H         -0.7211939519       -5.6403624014       -1.4785973437
 H         -0.6338744753       -5.3398920136        0.3061653026
 H         -0.7790892175       -3.1442836438       -1.8841348336
