  62
        -98.93928597
 C         -2.5585983770       -0.9446928995       -0.3491544740
 C         -2.5394785135        0.4297153498       -0.0089324320
 C         -3.7618615583        0.9450104168        0.6217516238
 C         -4.7917457667        0.1153343770        0.8673588295
 C         -6.0917261488        0.4874696186        1.5275381788
 C         -7.1267789990        1.0970780006        0.5720173946
 C         -6.8254446451        2.5233246526        0.1099537791
 H         -6.6307355390        3.1519020321        0.9794450997
 H         -7.7300839241        2.9021237319       -0.3698503180
 C         -5.6579784236        2.6347431922       -0.8804557716
 H         -5.9443736390        3.2867180192       -1.7087594727
 H         -5.4461704317        1.6510706560       -1.3057341901
 C         -4.3708023467        3.2016669424       -0.2815845962
 H         -4.5350436964        4.2361250349        0.0281061517
 H         -3.6018469566        3.2003434680       -1.0581340247
 C         -3.8321041938        2.4125941584        0.9189368784
 H         -4.4510532904        2.5941919449        1.7973258559
 H         -2.8161704500        2.7562175557        1.1287981736
 H         -8.0868637887        1.1021474586        1.0932287888
 H         -7.2250483311        0.4446359749       -0.2986630566
 H         -5.9002305863        1.1792547926        2.3483871445
 H         -6.5054622089       -0.4353012334        1.9399723510
 O         -4.7576426336       -1.2072690521        0.5518980002
 C         -3.6520561447       -1.7648385386       -0.0684281100
 O         -3.7608260711       -2.9841993145       -0.3116393768
 O         -1.5610193011        1.1922087965       -0.2188222614
 C         -1.3507239579       -1.5912221522       -1.0071685219
 C         -0.1915261572       -1.5370958278       -0.0412208745
 C         -0.2734815956       -2.2852521341        1.1307608600
 C          0.7447326024       -2.2503899961        2.0634513597
 C          1.8627004120       -1.4610438376        1.8543663506
 C          1.9538855023       -0.7108118216        0.6905640167
 C          0.9364582775       -0.7634223405       -0.2563515843
 H          1.0194082304       -0.1721482529       -1.1545012507
 N          3.0670821743        0.1219430421        0.4805094413
 S          4.5982477500       -0.4719280727        0.8652924048
 O          4.7868803495       -1.7824308256        0.2827313561
 O          4.7806976524       -0.3882741977        2.2927985909
 C          5.6306495539        0.7307303486        0.0521267075
 C          5.8329910652        1.9506124002        0.6694060569
 C          6.6097692223        2.9033603327        0.0299438070
 C          7.1666650820        2.6226318231       -1.2091121038
 C          6.9550989226        1.3936122110       -1.8154959978
 C          6.1783354438        0.4362668523       -1.1818205403
 H          5.9936727057       -0.5351223258       -1.6118681296
 H          7.3913634476        1.1780432406       -2.7775514499
 H          7.7714176519        3.3658024391       -1.7043597969
 H          6.7781855093        3.8595556002        0.4985745049
 H          5.3865133599        2.1213177119        1.6350580040
 H          3.0588143409        0.5418899238       -0.4388933688
 H          2.6630022454       -1.4214049868        2.5755552497
 H          0.6687857605       -2.8393690320        2.9655140405
 H         -1.1525015908       -2.8932645012        1.2992487188
 H         -1.6164231936       -2.6471330294       -1.1559440459
 C         -1.0676746540       -0.9650329358       -2.3558782664
 C         -0.2383209067       -1.7071372960       -3.3592665250
 C         -1.7123438525       -1.5461855804       -3.5766616186
 H         -2.0495727414       -0.8735184664       -4.3509780509
 H         -2.3484562169       -2.4088758703       -3.4413266373
 H          0.4361008555       -1.1472248217       -3.9892859888
 H          0.1296974211       -2.6822712630       -3.0775639403
 H         -0.9738244312        0.1133197450       -2.3104744945
