  62
        -98.94094328
 C         -1.7304531945       -1.0742290185       -0.0073834709
 C         -2.1537647523        0.1340138481       -0.6144924630
 C         -3.6079942429        0.2839880505       -0.7949547845
 C         -4.4340131442       -0.6967364552       -0.3905099912
 C         -5.9319414392       -0.6470401337       -0.4666282773
 C         -6.5332375904       -0.0706545347        0.8228989417
 C         -5.8804589703        1.2342466360        1.2791550877
 H         -6.4050106105        1.5630536726        2.1788859218
 H         -4.8452173895        1.0349488540        1.5654648962
 C         -5.9072056719        2.3571771342        0.2328731564
 H         -6.2038275957        3.2864484048        0.7238526911
 H         -6.6587431432        2.1384275123       -0.5266319571
 C         -4.5628396400        2.6232607047       -0.4473495620
 H         -4.6406215563        3.5649069480       -0.9975377102
 H         -3.7857510741        2.7515949446        0.3106498683
 C         -4.0928399187        1.5520092191       -1.4395704051
 H         -4.8874805565        1.3410506842       -2.1583719361
 H         -3.2354774799        1.9588769962       -1.9842473376
 H         -7.6009617880        0.0906618901        0.6639009576
 H         -6.4157543241       -0.8089217854        1.6195018084
 H         -6.3032968410       -1.6635500275       -0.6074202931
 H         -6.2275784825       -0.0412364180       -1.3209453291
 O         -3.9914786673       -1.8398528495        0.1924480880
 C         -2.6405063015       -2.0467827419        0.4169564908
 O         -2.3783907023       -3.1179445096        0.9987109478
 O         -1.3761981466        1.0487211584       -0.9899120158
 C         -0.2644020423       -1.3648941723        0.2669455641
 C          0.4157457704       -0.1435057347        0.8330578553
 C          0.0068038845        0.3323861121        2.0766089020
 C          0.5962860301        1.4495878617        2.6345689438
 C          1.6239242939        2.1026175821        1.9761525440
 C          2.0383035157        1.6364350108        0.7348817941
 C          1.4346592458        0.5206589613        0.1700853700
 H          1.7401975742        0.2124511505       -0.8148832756
 N          3.0749105767        2.2752795986        0.0424446842
 S          4.1187080235        1.4007028529       -0.9176881380
 O          5.3248984341        2.2009574420       -0.9559365147
 O          3.5230344759        1.1103832976       -2.1972041962
 C          4.4273154658       -0.1182099119       -0.0313207945
 C          4.2248211309       -1.3282275157       -0.6625771595
 C          4.4655412850       -2.5003059824        0.0367998724
 C          4.9010309662       -2.4418044347        1.3513355545
 C          5.1063130630       -1.2182636448        1.9704087432
 C          4.8697768146       -0.0439525821        1.2746538373
 H          5.0281177567        0.9213812343        1.7267927966
 H          5.4478229075       -1.1766383443        2.9920767580
 H          5.0824195258       -3.3554656057        1.8950587776
 H          4.3086061048       -3.4527854208       -0.4443255434
 H          3.8798512880       -1.3279415585       -1.6844652714
 H          3.5362669905        3.0219734062        0.5392215342
 H          2.0886170493        2.9745790598        2.4105529522
 H          0.2602501182        1.8127763639        3.5941877298
 H         -0.7932479329       -0.1810319799        2.5931406643
 H         -0.2725620003       -2.1376615543        1.0535296636
 C          0.4860095313       -1.9604199590       -0.9146437622
 C         -0.2073619137       -2.8255594044       -1.9228042790
 C          0.2936579159       -1.4698813737       -2.3167045210
 H          1.1583906670       -1.4009332734       -2.9614658371
 H         -0.4233964053       -0.6800003613       -2.4763166586
 H          0.3112747629       -3.6961709622       -2.2949024739
 H         -1.2732725518       -2.9653927008       -1.8153380253
 H          1.4931884840       -2.2577503505       -0.6377602480
