  62
        -98.93902914
 C         -2.2504090883        0.0793629481       -0.2828834159
 C         -3.2839443943        0.7509345449        0.4156260743
 C         -4.4447365398       -0.0710154158        0.7931279283
 C         -4.4567458324       -1.3825198408        0.4975311671
 C         -5.5958333441       -2.3182589137        0.7780989072
 C         -6.5659828027       -2.3821970403       -0.4100442662
 C         -6.9927629005       -1.0108348273       -0.9338286088
 H         -6.1233280991       -0.5069705766       -1.3624426184
 H         -7.6996525510       -1.1801004466       -1.7490259534
 C         -7.6367890269       -0.1005593206        0.1211638926
 H         -8.5253593146        0.3631008648       -0.3124276913
 H         -7.9654653864       -0.6964761028        0.9732983593
 C         -6.7373507436        1.0346487560        0.6136070497
 H         -6.3315960567        1.5782992370       -0.2432172115
 H         -7.3547631212        1.7345093870        1.1829764942
 C         -5.5692632015        0.6169150717        1.5156826183
 H         -5.9389806765       -0.0054629299        2.3328213588
 H         -5.1381530127        1.5265508063        1.9433854585
 H         -6.0794218250       -2.9233173384       -1.2249263066
 H         -7.4480459783       -2.9482538778       -0.1052381114
 H         -5.1864044516       -3.3140769831        0.9557699225
 H         -6.1205911050       -1.9865041502        1.6718157455
 O         -3.4342516988       -2.0012744278       -0.1467896361
 C         -2.3233751842       -1.2895286235       -0.5615075595
 O         -1.4766414182       -1.9789077590       -1.1668558542
 O         -3.2652355590        1.9729086698        0.7200247564
 C         -0.9903214594        0.7706591438       -0.7788099910
 C          0.0295340463        0.9421765677        0.3220859851
 C         -0.2177471308        1.7496897251        1.4276716723
 C          0.7495701204        1.9157572696        2.4014305632
 C          1.9838580455        1.3014355890        2.2837600820
 C          2.2368014885        0.4851438871        1.1877344177
 C          1.2571273547        0.3042677215        0.2213889616
 H          1.4645495412       -0.3423273070       -0.6194298166
 N          3.4705770419       -0.1703502696        1.0487125874
 S          4.1022769807       -0.3558362709       -0.5062040579
 O          3.8848195515        0.8487378757       -1.2751553805
 O          3.5910491970       -1.5779090027       -1.0748894341
 C          5.8357828539       -0.5440839261       -0.1324613347
 C          6.6662825051        0.5584337862       -0.2046476826
 C          8.0061077534        0.4106277659        0.1182519911
 C          8.4891211728       -0.8292212664        0.5090243149
 C          7.6435438501       -1.9268283379        0.5756139323
 C          6.3031285634       -1.7865098937        0.2527733290
 H          5.6103505833       -2.6115980376        0.2803417263
 H          8.0231935024       -2.8899213303        0.8764785542
 H          9.5318812920       -0.9418057805        0.7604499218
 H          8.6665740300        1.2609451698        0.0633686879
 H          6.2476931830        1.5000954949       -0.5217096716
 H          4.1675921474        0.1563585714        1.7039259734
 H          2.7431690003        1.4452553856        3.0375062915
 H          0.5451756470        2.5432200159        3.2558902823
 H         -1.1760334908        2.2373718401        1.5165144937
 H         -0.5533905001        0.0896284979       -1.5228104413
 C         -1.2584088585        2.1028493529       -1.4544660887
 C         -0.1909376615        2.6905885745       -2.3257795069
 C         -1.4471305551        2.1494877064       -2.9390313134
 H         -2.1641876798        2.8467951008       -3.3458066883
 H         -1.3889478182        1.2161292260       -3.4808342402
 H         -0.0460512593        3.7599767383       -2.3117036289
 H          0.7233229502        2.1267551861       -2.4463706208
 H         -1.8497844259        2.7800996779       -0.8528979183
