  62
        -98.93742844
 C         -2.4639290625       -1.1537047519        0.0015636123
 C         -3.4414063603       -0.6971824654        0.9236957311
 C         -4.4444001654        0.2561218393        0.4214886880
 C         -4.3936707030        0.6311300109       -0.8680667562
 C         -5.2759303916        1.6242322836       -1.5725066734
 C         -4.6451923657        3.0269656661       -1.5462987123
 C         -4.9798539561        3.8612628110       -0.3104459625
 H         -4.3735877040        4.7687922702       -0.3577129125
 H         -6.0278375496        4.1647882181       -0.3560134915
 C         -4.7283614027        3.1717892316        1.0330968215
 H         -3.7744624100        2.6418348891        1.0023162400
 H         -4.6417476597        3.9477351397        1.7961291731
 C         -5.8513985087        2.2039365922        1.4345331447
 H         -6.1818167292        2.4345313327        2.4494293312
 H         -6.7115780804        2.3666522299        0.7854579565
 C         -5.4687234656        0.7169645302        1.4223675682
 H         -6.3754210193        0.1162289281        1.2938677855
 H         -5.0484836202        0.4413956208        2.3946517426
 H         -3.5616066034        2.9085056897       -1.6284820128
 H         -4.9808712627        3.5781318722       -2.4271280655
 H         -5.3473162078        1.2943517773       -2.6110719835
 H         -6.2712920025        1.6319342809       -1.1385041910
 O         -3.4462953799        0.1633438018       -1.7242773986
 C         -2.4626323005       -0.7252621374       -1.3252473228
 O         -1.6783158082       -1.0367949968       -2.2454641920
 O         -3.4740313338       -1.0748723814        2.1254966851
 C         -1.4363926702       -2.1385697133        0.5340451528
 C         -0.1162590822       -1.4660151818        0.8289345727
 C          0.3704495414       -1.3965511301        2.1290882576
 C          1.5891862656       -0.7969163256        2.3945997960
 C          2.3445767991       -0.2521065284        1.3719045875
 C          1.8661430480       -0.3137267330        0.0695121885
 C          0.6474483659       -0.9222563198       -0.1943913040
 H          0.2772918582       -0.9609114931       -1.2084398969
 N          2.6158325008        0.2578098248       -0.9752555692
 S          4.2111039828       -0.2386168284       -1.1528360242
 O          4.5324567459       -0.0063071002       -2.5439428967
 O          4.4023980265       -1.5848213902       -0.6642100052
 C          5.1306471039        0.9086015652       -0.1478996217
 C          5.9193537313        0.4415947066        0.8852331425
 C          6.6312218962        1.3530670986        1.6495748428
 C          6.5429715862        2.7077064449        1.3680954863
 C          5.7488997022        3.1602689200        0.3248360591
 C          5.0356668996        2.2542680998       -0.4436192907
 H          4.4119501945        2.5631874422       -1.2658742175
 H          5.6833604053        4.2143768673        0.1083229637
 H          7.0968139901        3.4152567957        1.9646756702
 H          7.2499361904        1.0032442177        2.4602386827
 H          5.9535084848       -0.6203565135        1.0693141944
 H          2.1379613769        0.2295512280       -1.8649888695
 H          3.2927329445        0.2195011664        1.5722683882
 H          1.9540504457       -0.7508785137        3.4093126738
 H         -0.2196392879       -1.8086582478        2.9347310061
 H         -1.8500487699       -2.4903628200        1.4886456123
 C         -1.2356369859       -3.3400234484       -0.3696072785
 C         -0.6654428863       -4.5976542675        0.2114271086
 C         -2.1073517883       -4.5454211950       -0.1942076221
 H         -2.4183115382       -5.0878150901       -1.0744482949
 H         -2.8551796985       -4.5118889044        0.5846962595
 H          0.0194645009       -5.1770693652       -0.3886496416
 H         -0.4354098650       -4.6009986890        1.2661055335
 H         -0.9496505862       -3.0784290158       -1.3802453721
