  62
        -98.94185318
 C          2.7724733772        0.3221504446       -0.2828483241
 C          2.0183986736       -0.5112536246       -1.1446851779
 C          2.0520188218       -1.9499208266       -0.8435131543
 C          2.7987019623       -2.3997147322        0.1796617915
 C          2.8871519995       -3.8316849761        0.6192235313
 C          1.8525594783       -4.1509824713        1.7069762221
 C          0.4314983662       -3.6956668738        1.3726764126
 H          0.3883950968       -2.6032343134        1.3597076773
 H         -0.2143308321       -4.0235853650        2.1907156439
 C         -0.1171295599       -4.2333627480        0.0439862816
 H         -1.1453823231       -4.5643999759        0.2037018290
 H          0.4606096673       -5.1025809882       -0.2739608730
 C         -0.1511312053       -3.1993072523       -1.0831147407
 H         -0.6091039715       -2.2797401693       -0.7072787611
 H         -0.7853041616       -3.5885000358       -1.8847056922
 C          1.2088802446       -2.8495381757       -1.7022758133
 H          1.0247061219       -2.2957321274       -2.6274092973
 H          1.7479036257       -3.7658364779       -1.9516193942
 H          2.1585437833       -3.6574820103        2.6324412027
 H          1.8574986507       -5.2291078873        1.8791937193
 H          2.7357644953       -4.4796482913       -0.2418948235
 H          3.8868730190       -4.0045504411        1.0217989756
 O          3.5446728472       -1.5775992684        0.9609532863
 C          3.5215517831       -0.2077385677        0.7731216511
 O          4.2157336278        0.4294232281        1.5912162941
 H          0.2192998996        1.4600327450       -1.1555530247
 C          0.2730183641        2.0290276040       -0.2393591939
 C          1.5144831928        2.3530670012        0.2887576460
 C          1.5593223305        3.0681604329        1.4795940983
 C          0.3916122820        3.4298129325        2.1303224753
 C         -0.8430437715        3.0680162980        1.6199955665
 C         -0.8939914846        2.3582145218        0.4288988346
 N         -2.1479695435        1.9063908389       -0.0673280642
 S         -2.6537913323        0.5534113383        0.8255427812
 O         -3.0109497904        1.0077238025        2.1461434561
 O         -1.6553069585       -0.4917325464        0.7629439175
 C         -4.1186846145        0.0711523761       -0.0676890681
 C         -4.0537417368       -0.9767479364       -0.9652155390
 C         -5.1919196580       -1.3182727183       -1.6791186461
 C         -6.3662903899       -0.6065539036       -1.4869582517
 C         -6.4145606429        0.4447867902       -0.5833157377
 C         -5.2810444695        0.7902804365        0.1346433967
 H         -5.2715113112        1.5932868604        0.8526021455
 H         -7.3300591793        0.9947145990       -0.4365835889
 H         -7.2497679007       -0.8743977162       -2.0446087524
 H         -5.1564141204       -2.1358131681       -2.3811154155
 H         -3.1204484660       -1.5055542343       -1.0796336086
 H         -2.0447888888        1.6008002399       -1.0289298156
 H         -1.7578178602        3.2981852327        2.1411787916
 H          0.4444510373        3.9811724087        3.0570758656
 H          2.5193198877        3.3128537667        1.9113003835
 C          2.7724141950        1.8435242856       -0.3736168342
 H          3.6296895486        2.1797128687        0.2245245171
 C          2.9317873490        2.3743042012       -1.7836224736
 C          3.4100462439        3.7809446213       -1.9762387551
 C          4.3076977947        2.6303598994       -2.3171187068
 H          4.5038720058        2.4161276226       -3.3568544081
 H          5.1430853860        2.4232429296       -1.6639492967
 H          3.6386112688        4.3564673187       -1.0919486134
 H          2.9891036013        4.3613644191       -2.7826547498
 H          2.1956041945        1.9914098957       -2.4771734947
 O          1.3415660811       -0.1027150001       -2.1275227855
