  62
        -98.94414532
 C         -2.5085534297       -1.1579736478       -0.0737176689
 C         -3.2256294510       -0.4054983393        0.8862063373
 C         -4.0379318065        0.6965015143        0.3589449334
 C         -4.0685282089        0.9279080481       -0.9665151509
 C         -4.8691289154        1.9970442053       -1.6596837204
 C         -4.1837792497        3.3700409947       -1.6905493791
 C         -4.1446212851        4.1074173371       -0.3514388589
 H         -3.8348964018        5.1335978033       -0.5586982777
 H         -5.1497714118        4.1493760038        0.0690382608
 C         -3.1801727568        3.5000180214        0.6770709352
 H         -2.4795069031        2.8328691576        0.1687063765
 H         -2.5876647970        4.2947233761        1.1365090050
 C         -3.8627276119        2.7316756515        1.8090880407
 H         -3.0873344788        2.3174931901        2.4594527565
 H         -4.4675516054        3.4185868498        2.4051123150
 C         -4.7552852511        1.5752586590        1.3389899948
 H         -5.6743628102        1.9639842957        0.9013106155
 H         -5.0112575962        0.9648376567        2.2085182998
 H         -3.1660615565        3.2440309561       -2.0672331114
 H         -4.7286156566        3.9901211062       -2.4059227974
 H         -5.8470197072        2.0875927332       -1.1861635355
 H         -5.0100861933        1.6600984705       -2.6888052899
 O         -3.3646631166        0.1804347612       -1.8572149023
 C         -2.5505029453       -0.8621889400       -1.4365405369
 O         -1.9353538352       -1.4345766837       -2.3547180359
 O         -3.1856137244       -0.6411043866        2.1248977969
 C         -1.6340098221       -2.3057826117        0.3950724155
 C         -0.1888434777       -2.0424330861        0.0474576017
 C          0.6487603615       -2.9968287266       -0.5138804531
 C          1.9701135584       -2.6924519104       -0.7937663438
 C          2.4851288957       -1.4395236707       -0.5190184022
 C          1.6606888387       -0.4808610781        0.0561782376
 C          0.3394635832       -0.7900153652        0.3381705220
 H         -0.3008202674       -0.0417699162        0.7908356811
 N          2.1755506290        0.7986183381        0.3356150024
 S          3.5720462661        0.8900029812        1.2670633485
 O          3.6794085269       -0.2348972725        2.1672271485
 O          3.5335526105        2.2009466528        1.8777646123
 C          4.8912306916        0.8446356981        0.0727323620
 C          5.8720589044       -0.1231388292        0.1671157230
 C          6.8952555367       -0.1330991286       -0.7681720462
 C          6.9192685089        0.8198162262       -1.7749825220
 C          5.9277900437        1.7866034273       -1.8541004152
 C          4.9029944734        1.8031484387       -0.9215563518
 H          4.1162214650        2.5386895695       -0.9452414620
 H          5.9497871663        2.5259782413       -2.6384477623
 H          7.7153957970        0.8095118740       -2.5025379876
 H          7.6672107535       -0.8833266631       -0.7081861200
 H          5.8084503877       -0.8469078436        0.9639012504
 H          1.4821890772        1.4440491990        0.6857072415
 H          3.5111147174       -1.1972237077       -0.7427192206
 H          2.6071190843       -3.4425687442       -1.2368298067
 H          0.2664285744       -3.9791309711       -0.7368896115
 H         -1.7204424454       -2.3082568499        1.4926510388
 C         -2.1580455382       -3.6235498712       -0.1353774266
 C         -1.9442872055       -4.8886235276        0.6392067672
 C         -3.3099213857       -4.2766142078        0.5659722039
 H         -4.0659812594       -4.7660969288       -0.0292876234
 H         -3.6989872901       -3.7832422867        1.4449136063
 H         -1.7648192574       -5.8031062147        0.0943438397
 H         -1.4073711422       -4.8182827555        1.5732216623
 H         -2.1382911083       -3.6729948267       -1.2181634998
