  62
        -98.93726316
 C         -2.4908696503       -1.1839781089       -0.3437797396
 C         -2.0713730896        0.1017581308        0.0833668707
 C         -3.0978757590        0.9176946310        0.7504983114
 C         -4.3311022791        0.4228804414        0.9524548117
 C         -5.4739899486        1.1299713016        1.6288773224
 C         -6.2628145086        2.0672931422        0.7040776131
 C         -5.5431965782        3.3610344221        0.3205603633
 H         -5.1873643677        3.8584919716        1.2233596533
 H         -6.2854263182        4.0152668925       -0.1410157662
 C         -4.3764436787        3.1707402620       -0.6587383673
 H         -4.4402239887        3.9197674723       -1.4511738270
 H         -4.4582678693        2.1917882822       -1.1367048476
 C         -2.9907154284        3.2980587312       -0.0256609378
 H         -2.8475065579        4.3165987910        0.3418260226
 H         -2.2409924088        3.1111541712       -0.7987703381
 C         -2.7333295483        2.3215891607        1.1296023218
 H         -3.2871035279        2.6320763006        2.0154689821
 H         -1.6653820882        2.3354366402        1.3628548014
 H         -7.1881270683        2.3312615024        1.2212326535
 H         -6.5333593392        1.5183542826       -0.2008977270
 H         -6.1502992087        0.3519062517        1.9894975224
 H         -5.1014717280        1.6906851811        2.4867266325
 O         -4.6828177498       -0.8321739084        0.5659167114
 C         -3.7821829903       -1.6564447085       -0.0872228393
 O         -4.2438282109       -2.7773569082       -0.3813162295
 H          0.8738551394       -0.9791846498       -1.4912383608
 C          0.8759281395       -1.5938125001       -0.6046285811
 C         -0.2754723406       -2.2719466998       -0.2409420409
 C         -0.2662851005       -3.0279975702        0.9270593589
 C          0.8711955798       -3.1033911409        1.7088887784
 C          2.0186452399       -2.4199591912        1.3465841882
 C          2.0140464498       -1.6525499408        0.1899452785
 N          3.1726554199       -0.9490170911       -0.1905895917
 S          4.0652266307       -0.1940226719        1.0277515582
 O          4.9140458705       -1.1835490325        1.6458754375
 O          3.1970584213        0.5353200381        1.9246210588
 C          5.0569415407        0.9324861481        0.0665606982
 C          6.3144662504        0.5406246977       -0.3504399224
 C          7.0677736804        1.4145109977       -1.1184482524
 C          6.5533109708        2.6574136780       -1.4554969017
 C          5.2889080011        3.0367820284       -1.0296334311
 C          4.5301587411        2.1676491384       -0.2617537411
 H          3.5463158313        2.4255219186        0.0983193394
 H          4.8915764414        4.0041852286       -1.2918713106
 H          7.1410958008        3.3366462180       -2.0525203217
 H          8.0517009902        1.1244751874       -1.4500098129
 H          6.6738653601       -0.4318497925       -0.0571695229
 H          2.9794287698       -0.2991694508       -0.9410016514
 H          2.9071602702       -2.4540103118        1.9564965678
 H          0.8647708299       -3.6928806713        2.6137467282
 H         -1.1690629606       -3.5458493900        1.2224143590
 C         -1.5529844109       -2.1619074890       -1.0344582203
 H         -2.0688599113       -3.1336528488       -0.9793940405
 C         -1.3166644714       -1.8811670085       -2.5111146103
 C         -2.4578714616       -1.4653313778       -3.3898689197
 C         -1.3442486411       -0.5057325583       -3.1033063198
 H         -0.6477549213       -0.2811260383       -3.8981952800
 H         -1.5366573205        0.3261203615       -2.4448794494
 H         -3.4129716213       -1.2991372676       -2.9125139093
 H         -2.5319328721       -1.8928909274       -4.3782960298
 H         -0.6060507918       -2.5807076787       -2.9410222608
 O         -0.9150221995        0.5692952604       -0.0796902796
