  62
        -98.94506523
 C         -2.5521097547       -0.1026155137        0.4137890899
 C         -2.3359846420        0.5558567799       -0.8205413675
 C         -2.1068924906        2.0049752242       -0.7420056258
 C         -2.1198395627        2.6112046624        0.4586740010
 C         -1.9115717704        4.0812682386        0.6814194283
 C         -0.4413543893        4.4221706514        0.9550797117
 C          0.5394902493        3.8282884552       -0.0560917996
 H          1.5326743099        4.2026178448        0.2038465233
 H          0.5733027501        2.7428568162        0.0634820660
 C          0.2357801370        4.1689436978       -1.5214824437
 H          1.1738970732        4.4266386758       -2.0173871596
 H         -0.4113016416        5.0457640255       -1.5742584533
 C         -0.3889518338        3.0233304467       -2.3207589230
 H          0.1783027322        2.1061062461       -2.1403484379
 H         -0.3049031036        3.2628706056       -3.3843897100
 C         -1.8681457965        2.7368225626       -2.0320527876
 H         -2.4384878349        3.6679117881       -2.0620445299
 H         -2.2422125791        2.0775066513       -2.8208609303
 H         -0.3409053434        5.5097281451        0.9661897278
 H         -0.1758968405        4.0454993813        1.9459230779
 H         -2.2623879026        4.6237398376       -0.1947131286
 H         -2.5086503395        4.3805320206        1.5451731635
 O         -2.3223064899        1.9430998690        1.6247893474
 C         -2.5174772465        0.5716976802        1.6321867459
 O         -2.6599586813        0.0775803311        2.7716687892
 H         -0.1992260688       -0.9198190983        0.5405150477
 C         -0.3394950898       -1.8108966188       -0.0540793479
 C         -1.6204017070       -2.3186796945       -0.2262927785
 C         -1.7779744234       -3.4782996927       -0.9745076368
 C         -0.6775754280       -4.0977348463       -1.5425169874
 C          0.5924075118       -3.5752045577       -1.3870700607
 C          0.7598670585       -2.4105310584       -0.6436931922
 N          2.0289093911       -1.8215152596       -0.5224344811
 S          2.3181235565       -0.5982134407        0.5909467994
 O          2.0628748144       -1.0634151881        1.9384497940
 O          1.6164684496        0.5885824477        0.1747412490
 C          4.0710004913       -0.3828749095        0.3496458166
 C          4.9534310049       -1.0999586704        1.1355982977
 C          6.3148692387       -0.9519696119        0.9223989871
 C          6.7686333912       -0.0949580257       -0.0690471098
 C          5.8713535577        0.6201645671       -0.8481973250
 C          4.5086826303        0.4764207330       -0.6399233126
 H          3.7733004170        1.0162473974       -1.2137851445
 H          6.2274690128        1.2885624448       -1.6153746940
 H          7.8284681627        0.0189796768       -0.2331378710
 H          7.0146432097       -1.5034944941        1.5293039008
 H          4.5548247446       -1.7441154852        1.9029074226
 H          2.7970519034       -2.4711701417       -0.6069730518
 H          1.4464102779       -4.0519999996       -1.8425474884
 H         -0.8129239296       -4.9998242739       -2.1197737880
 H         -2.7619313246       -3.8954016569       -1.1144929771
 C         -2.7729753785       -1.6032609550        0.4380105464
 H         -2.7851932701       -1.8924123187        1.5004850329
 C         -4.1166699781       -1.9432813027       -0.1761838458
 C         -4.9172771815       -3.1016593913        0.3362100821
 C         -5.3576090291       -1.6994267376        0.6271671212
 H         -6.2315893375       -1.3145180118        0.1237413673
 H         -5.2271813227       -1.3172334386        1.6296128669
 H         -4.5009315222       -3.6776796206        1.1489654994
 H         -5.4947538944       -3.6810564857       -0.3683520255
 H         -4.1535602234       -1.7201760773       -1.2363454109
 O         -2.3486822946       -0.0343559942       -1.9329023068
