  62
        -98.94361206
 C         -1.9455507009       -1.2814397903       -0.1959854000
 C         -2.2709197508       -0.0935235701       -0.8948554798
 C         -3.6930618607        0.2843465501       -0.8863902397
 C         -4.5825996108       -0.4947238999       -0.2454988097
 C         -6.0457970907       -0.1918208697       -0.1064621595
 C         -6.3264922005        0.6114363302        1.1714370606
 C         -5.4107305903        1.8217202000        1.3555714607
 H         -5.7198800501        2.3266322799        2.2733296708
 H         -4.3860806303        1.4750904398        1.5094681706
 C         -5.4359671202        2.8205686702        0.1901892909
 H         -5.4979637000        3.8321629501        0.5967960610
 H         -6.3278673503        2.6601653004       -0.4166336591
 C         -4.1987429003        2.7778124101       -0.7086875892
 H         -3.2957650902        2.8462966999       -0.0961360793
 H         -4.2191411302        3.6568590702       -1.3586379291
 C         -4.0738463306        1.5442022503       -1.6115497094
 H         -4.9997693006        1.4027522805       -2.1728033294
 H         -3.2655013206        1.7355774902       -2.3237307695
 H         -7.3669447704        0.9405078103        1.1504241808
 H         -6.1958781605       -0.0495677000        2.0312558805
 H         -6.3805274707        0.3651768505       -0.9793372794
 H         -6.5900346208       -1.1364096796       -0.0583251496
 O         -4.2341317809       -1.6361193000        0.4011368401
 C         -2.9137136509       -2.0479698002        0.4560519299
 O         -2.7312580510       -3.0992477503        1.1024172298
 H          1.2289047893        0.2668251293       -0.8567536001
 C          1.0962289294        0.1861344392        0.2083577199
 C          0.2644689293       -0.7823312907        0.7474642798
 C          0.0816077094       -0.8164368909        2.1286110898
 C          0.7138456496        0.0981751389        2.9475520199
 C          1.5478337597        1.0615729588        2.4064712200
 C          1.7326177796        1.1092052890        1.0298319800
 N          2.5480603697        2.1003047590        0.4630799501
 S          3.6304490795        1.7610777090       -0.7619144301
 O          4.4671780797        2.9390232889       -0.8324262600
 O          2.9394524094        1.3937847493       -1.9701683701
 C          4.5849525494        0.3841353887       -0.1506522904
 C          5.6961726895        0.6457855085        0.6274291196
 C          6.4161404494       -0.4169972317        1.1479884593
 C          6.0093823892       -1.7176119816        0.8903636192
 C          4.8905941891       -1.9631821613        0.1095857292
 C          4.1683219992       -0.9042162212       -0.4178030605
 H          3.2966748491       -1.0587684009       -1.0314018805
 H          4.5748630489       -2.9741443213       -0.0930874709
 H          6.5687242291       -2.5452117318        1.2972479590
 H          7.2892695495       -0.2291512019        1.7518245393
 H          5.9831086797        1.6715814084        0.7929768597
 H          2.9568594599        2.7369231388        1.1312702401
 H          2.0397332799        1.7814195187        3.0430054901
 H          0.5603325997        0.0609959887        4.0154422799
 H         -0.5787233507       -1.5642942609        2.5462031798
 C         -0.5062878709       -1.7658006505       -0.0989823102
 H         -0.5508093910       -2.7186607506        0.4461782796
 C          0.0883773989       -2.0234728004       -1.4666206503
 C          1.2442058888       -2.9674723205       -1.6004085706
 C         -0.1131185913       -3.3699830103       -2.0921252605
 H         -0.2828546715       -3.4233892201       -3.1570847505
 H         -0.6673282214       -4.1038328803       -1.5248531906
 H          1.6130277288       -3.4340305507       -0.6993180307
 H          2.0060956487       -2.7495031006       -2.3340487806
 H          0.0535669190       -1.1635375403       -2.1242194902
 O         -1.4301559907        0.6208982698       -1.5004259398
