  62
        -98.93572034
 C         -2.2239082888       -0.2136470883        0.3955030807
 C         -3.3341234765       -0.7657770303       -0.2913981573
 C         -4.3871060431        0.1890109084       -0.6777058194
 C         -4.2348714421        1.4960027906       -0.4026770736
 C         -5.2480080957        2.5620904865       -0.7019332908
 C         -6.2048314367        2.7679923291        0.4807764262
 C         -6.8001336307        1.4701022274        1.0267880374
 H         -6.0004701816        0.8697551516        1.4668985506
 H         -7.4812041417        1.7404835366        1.8366508952
 C         -7.5514268626        0.6286600711       -0.0143663506
 H         -8.4915549311        0.2875786172        0.4241726636
 H         -7.8016836748        1.2457550253       -0.8779527472
 C         -6.8001967099       -0.6185499191       -0.4837556303
 H         -7.4996256655       -1.2463749120       -1.0420613183
 H         -6.4659811390       -1.1930577025        0.3838049858
 C         -5.5888090720       -0.3662155644       -1.3900802145
 H         -5.2739503395       -1.3304787007       -1.7993891851
 H         -5.8781093297        0.2821579971       -2.2193989800
 H         -7.0089352769        3.4338512330        0.1622605858
 H         -5.6561019457        3.2591092336        1.2878537926
 H         -5.8085664039        2.2832718300       -1.5920698941
 H         -4.7164354360        3.4954296440       -0.8949563972
 O         -3.1423112932        1.9940956470        0.2330662077
 C         -2.1253991785        1.1559093927        0.6556310164
 O         -1.1981809251        1.7415077630        1.2531538205
 O         -3.4592800114       -1.9830509435       -0.5786196924
 C         -1.0550429244       -1.0502915583        0.8901924824
 C         -0.0138256581       -1.2078354205       -0.1886019853
 C         -0.3523759172       -1.6705650269       -1.4570110625
 C          0.6164811139       -1.8029193805       -2.4341857660
 C          1.9342315968       -1.4740680320       -2.1695504253
 C          2.2843310372       -1.0162650214       -0.9045839679
 C          1.3096249851       -0.8869501013        0.0757555131
 H          1.5900530381       -0.5088891834        1.0475599266
 N          3.6251592093       -0.7202501607       -0.6016516464
 S          3.9649643993        0.5947073766        0.4037429024
 O          3.7242426157        0.2066584932        1.7705583584
 O          3.2749701772        1.7737943945       -0.0692339817
 C          5.7197791020        0.7484556677        0.1259538911
 C          6.1919417254        1.7263807683       -0.7286069305
 C          7.5563535866        1.8154129500       -0.9568896525
 C          8.4198561549        0.9276684878       -0.3330210286
 C          7.9309104100       -0.0484577948        0.5227534733
 C          6.5683144309       -0.1419086935        0.7567415540
 H          6.1434413732       -0.8771474116        1.4198352681
 H          8.6056495171       -0.7350533097        1.0080112049
 H          9.4809431179        0.9989817551       -0.5125830794
 H          7.9392280727        2.5755260851       -1.6186417657
 H          5.4829799158        2.3986399697       -1.1849121704
 H          4.2077525349       -0.6950936656       -1.4283385042
 H          2.6880618903       -1.5733205124       -2.9359228622
 H          0.3415770113       -2.1609808310       -3.4149481475
 H         -1.3798529198       -1.9276504077       -1.6639149699
 H         -0.5979200833       -0.4550760813        1.6977840654
 C         -1.4871080286       -2.3786571777        1.4989128560
 C         -1.1613003389       -3.7117422970        0.9025812637
 C         -0.4626831119       -3.2620868755        2.1480000139
 H         -0.7078043235       -3.7377442040        3.0855934378
 H          0.5712785144       -2.9606060705        2.0626424427
 H         -1.9101582553       -4.4853396347        0.9761661535
 H         -0.5981911554       -3.7370192318       -0.0165658034
 H         -2.4463118548       -2.2994067519        2.0003860697
