  62
        -98.94182507
 C         -1.1726965249       -1.5404097291        0.4914912778
 C         -2.1374651797       -1.2126370236       -0.4895901734
 C         -3.2151948206       -0.3036111348       -0.0640791771
 C         -3.2287608900        0.1650877471        1.1953443237
 C         -4.2429313951        1.0719348907        1.8462898100
 C         -4.7243051235        2.2870250185        1.0412414318
 C         -3.6819661060        2.8994772109        0.0936091843
 H         -2.6866115081        2.5042721950        0.3101853424
 H         -3.6392485682        3.9773767005        0.2637324620
 C         -4.0132561886        2.6733182692       -1.3837677853
 H         -3.4703892158        3.4119508758       -1.9786651716
 H         -5.0808767832        2.8503645353       -1.5340919359
 C         -3.6513035674        1.2953918879       -1.9358723356
 H         -2.5630699442        1.1968747279       -1.9912975588
 H         -4.0311616945        1.2319555150       -2.9586194683
 C         -4.1888296861        0.0987390806       -1.1335538473
 H         -4.2628872665       -0.7549379459       -1.8126800774
 H         -5.1750471280        0.3075232462       -0.7261214732
 H         -5.0404836575        3.0392971031        1.7659903766
 H         -5.6079217902        2.0155544266        0.4648706624
 H         -3.7670925831        1.4120426282        2.7692751049
 H         -5.1085115300        0.4668657677        2.1319456806
 O         -2.2769573940       -0.1773553854        2.1091525210
 C         -1.2147512010       -0.9988081764        1.7739857869
 O         -0.3857654099       -1.1707778731        2.6924273785
 O         -2.1053854738       -1.6561468850       -1.6669784633
 C          0.0177964814       -2.4046180411        0.1223210734
 C          0.8326884808       -1.7265463287       -0.9546066573
 C          1.4918105647       -2.4140178841       -1.9662763838
 C          2.2389012799       -1.7246704617       -2.9062654274
 C          2.3663980212       -0.3481461505       -2.8486928372
 C          1.7160511696        0.3472193767       -1.8361426406
 C          0.9580653350       -0.3457669246       -0.9073430061
 H          0.4355674175        0.2100580928       -0.1445751268
 N          1.8089915118        1.7431289161       -1.7225184624
 S          1.8684136138        2.4269024313       -0.1959948648
 O          0.5626148223        2.4210093774        0.4145236196
 O          2.4528439283        3.7331552951       -0.4159008019
 C          3.0150975453        1.4015298780        0.7083417767
 C          4.3419868552        1.4572345297        0.3245293158
 C          5.2624352080        0.6408830332        0.9594367496
 C          4.8422112614       -0.2208171329        1.9618693433
 C          3.5097920060       -0.2608210689        2.3397411368
 C          2.5835931784        0.5567533430        1.7097543396
 H          1.5414043616        0.5331496876        1.9890430719
 H          3.1717019786       -0.9268609975        3.1178227376
 H          5.5557708309       -0.8628379916        2.4537281586
 H          6.3003888501        0.6750014887        0.6704240037
 H          4.6305722128        2.1481559325       -0.4509011598
 H          2.4551585180        2.1840345557       -2.3601725902
 H          2.9515051679        0.1847851557       -3.5821023198
 H          2.7367752312       -2.2693860464       -3.6938605581
 H          1.4126440063       -3.4872881088       -2.0239038880
 H          0.6434717570       -2.4615023679        1.0263350034
 C         -0.4258761484       -3.8036298901       -0.2522842678
 C          0.4491514470       -4.9819897914        0.0497470336
 C         -0.8031959206       -4.7565728658        0.8407314865
 H         -1.6431093853       -5.4162407783        0.6830943101
 H         -0.7118426689       -4.4031754484        1.8578587181
 H          0.4679640277       -5.8028589461       -0.6512078514
 H          1.3937806136       -4.7932972026        0.5370903488
 H         -1.0191109532       -3.8213233358       -1.1589010753
