  62
        -98.94482202
 C         -1.9700046447       -0.4634268808       -0.0580806417
 C         -2.9965631882       -0.6035669587        0.9145353142
 C         -4.1387405525        0.3073765080        0.7957323347
 C         -4.1549554743        1.2283480208       -0.1843563329
 C         -5.2304778809        2.2530973309       -0.4223998004
 C         -6.4249537704        1.7301701499       -1.2320019867
 C         -7.3480476507        0.7692740342       -0.4816946623
 H         -7.6445902385        1.2185971151        0.4666085049
 H         -8.2510870148        0.6563848834       -1.0848932108
 C         -6.7455842572       -0.6200297315       -0.2300224187
 H         -5.8868578832       -0.7690580143       -0.8886375142
 H         -7.4805716236       -1.3870085168       -0.4843887727
 C         -6.3106509398       -0.8707752273        1.2139304651
 H         -5.8667932103       -1.8679393674        1.2696857431
 H         -7.1851605239       -0.8546749224        1.8681151406
 C         -5.2829795016        0.1354228612        1.7484694224
 H         -5.7620404735        1.0947011103        1.9438979028
 H         -4.8787414602       -0.2519250133        2.6868564778
 H         -7.0126487549        2.5974319838       -1.5418250231
 H         -6.0489494312        1.2440974994       -2.1352556749
 H         -5.5805509655        2.6443803134        0.5333697739
 H         -4.7652596266        3.0676752031       -0.9818797366
 O         -3.1470357205        1.3455679958       -1.0860149732
 C         -2.0439002692        0.5032665608       -1.0607566162
 O         -1.2290679163        0.7375896609       -1.9772838860
 O         -2.9577320664       -1.4570190634        1.8398208798
 C         -0.7946719305       -1.4204400522        0.0562607964
 C          0.3970817931       -0.7556223965        0.7033830012
 C          0.8776302422       -1.1942048410        1.9316319071
 C          1.9755201327       -0.5879867945        2.5177881396
 C          2.6163359655        0.4653815243        1.8913829474
 C          2.1426777803        0.9105298509        0.6633722044
 C          1.0478120429        0.2959501822        0.0734313580
 H          0.6793252727        0.6539289729       -0.8762547893
 N          2.7885913930        1.9773903183        0.0151749974
 S          4.4576800339        1.9179937299       -0.0818949798
 O          5.0303946932        2.4125149484        1.1460458206
 O          4.8019289450        2.6555920786       -1.2772214286
 C          4.8513021200        0.1876755933       -0.2728417207
 C          5.6450594951       -0.4450879185        0.6617985294
 C          5.9087751930       -1.7972964481        0.5121681124
 C          5.3721585025       -2.4904302426       -0.5613774235
 C          4.5789131404       -1.8393962986       -1.4938181458
 C          4.3139585622       -0.4874321644       -1.3510578777
 H          3.7020884462        0.0462312967       -2.0609110097
 H          4.1620468622       -2.3795876001       -2.3286023514
 H          5.5722315700       -3.5442212116       -0.6740123706
 H          6.5270608984       -2.3054069858        1.2344613444
 H          6.0368511445        0.1315542132        1.4838045696
 H          2.3734386094        2.2208676414       -0.8722261476
 H          3.4661297887        0.9573219220        2.3364480647
 H          2.3351411201       -0.9374481025        3.4733577762
 H          0.3743241343       -2.0069954760        2.4342525056
 H         -1.1404867375       -2.2127148646        0.7334811431
 C         -0.4060767222       -2.0559191557       -1.2651206454
 C          0.3764235947       -3.3334077065       -1.2540637259
 C         -1.0601286389       -3.3377863790       -1.6812133958
 H         -1.2907535163       -3.4823997178       -2.7261112104
 H         -1.7915299772       -3.7660475357       -1.0112843384
 H          1.1353605564       -3.4778637356       -2.0070765999
 H          0.6212200250       -3.7611176575       -0.2939485904
 H         -0.1878720440       -1.3357154088       -2.0426110438
