  62
        -98.94530106
 C          2.1394541476        0.8738031401        0.0761758308
 C          2.8697246212        0.2260336700        1.1001592734
 C          3.6084715690       -0.9788523182        0.6999937856
 C          3.5127280114       -1.4169931750       -0.5688430098
 C          4.2497926520       -2.6006603537       -1.1238877493
 C          5.5993219347       -2.1823675585       -1.7245551981
 C          6.4374189910       -1.2960619702       -0.8030678385
 H          7.3780378870       -1.0900219578       -1.3182344873
 H          5.9277084199       -0.3391874445       -0.6693113646
 C          6.7317172932       -1.9098088436        0.5728599127
 H          6.5661633435       -2.9872851047        0.5409514459
 H          7.7859013563       -1.7505665158        0.8088644182
 C          5.9225950552       -1.3068807946        1.7226423708
 H          6.3592514676       -1.6521921015        2.6634847900
 H          6.0110802458       -0.2178235928        1.7008246112
 C          4.4320552320       -1.6682993262        1.7514516073
 H          4.3140658306       -2.7519434213        1.6852917315
 H          4.0282260497       -1.3369196039        2.7127743009
 H          6.1599102037       -3.0850943319       -1.9739659134
 H          5.4100743625       -1.6330208018       -2.6496674516
 H          4.4032121540       -3.3313000352       -0.3319098642
 H          3.6362602508       -3.0506950858       -1.9064215839
 O          2.7599103907       -0.7965634512       -1.5132733551
 C          2.0642403108        0.3686459865       -1.2221675697
 O          1.4311378705        0.8431406214       -2.1834501188
 O          2.8972472536        0.6329072066        2.2937029584
 C          1.3739235145        2.1423787271        0.4075706749
 C         -0.0980644539        1.9397021351        0.1448953114
 C         -0.8764964866        2.8218703617       -0.5918656130
 C         -2.2181761101        2.5583110938       -0.8089802824
 C         -2.8132691029        1.4228333567       -0.2918225538
 C         -2.0453883260        0.5363634207        0.4524229235
 C         -0.7029130997        0.8030980654        0.6684545853
 H         -0.1041138046        0.1076362171        1.2448283108
 N         -2.6440914543       -0.6146806582        0.9972456853
 S         -3.5192390067       -1.6082397944       -0.0379855503
 O         -3.4866620534       -2.9158232601        0.5817041409
 O         -3.0320285205       -1.5277802423       -1.3956028996
 C         -5.1759617978       -0.9626208940        0.0605910999
 C         -5.7672923507       -0.8740190823        1.3057189268
 C         -7.0572967825       -0.3768390903        1.3994753156
 C         -7.7314240086        0.0178206200        0.2532846875
 C         -7.1253065167       -0.0813185482       -0.9897228546
 C         -5.8344132111       -0.5768460377       -1.0904988558
 H         -5.3199364269       -0.6666593513       -2.0341605609
 H         -7.6507289788        0.2252162382       -1.8799016127
 H         -8.7352042249        0.4050511122        0.3290556053
 H         -7.5318775024       -0.2983222813        2.3642669377
 H         -5.2101669436       -1.1949866627        2.1699232174
 H         -2.0119743263       -1.1674250023        1.5587524489
 H         -3.8559535246        1.2121112788       -0.4642685061
 H         -2.8091093551        3.2482527923       -1.3917430940
 H         -0.4312033141        3.7105131253       -1.0075463191
 H          1.5103522882        2.2912629907        1.4892676240
 C          1.9683240439        3.3261340252       -0.3255962380
 C          1.8587159339        4.7042325725        0.2531334454
 C          3.1795237691        3.9969131254        0.2474662411
 H          3.9481456855        4.3392567357       -0.4291543237
 H          3.5612246447        3.6146828508        1.1830954061
 H          1.7223227631        5.5368317796       -0.4201891051
 H          1.3453378992        4.8098407859        1.1966955938
 H          1.9210826359        3.2141356747       -1.4030866089
