  62
        -98.94592921
 C          2.1120482145        1.4936948188        0.0077889094
 C          1.8364332801        0.3798787759       -0.8216674861
 C          2.8976006760       -0.6355904319       -0.8962260353
 C          4.0448233837       -0.4444350998       -0.2198911844
 C          5.1849180209       -1.4192600302       -0.1711539941
 C          5.0434298695       -2.3814998263        1.0166588931
 C          3.6616637883       -3.0258612995        1.1290707404
 H          3.6907488013       -3.7087380370        1.9808867045
 H          2.9254216894       -2.2530581241        1.3621516648
 C          3.2136085604       -3.7899006728       -0.1245232923
 H          4.0776850305       -4.0108183664       -0.7522577464
 H          2.7853684273       -4.7457553702        0.1839887652
 C          2.1497337069       -3.0711332757       -0.9563163414
 H          1.3305111092       -2.7550960583       -0.3059458888
 H          1.7459492173       -3.7855960214       -1.6786563573
 C          2.6346309563       -1.8478434849       -1.7445427179
 H          3.5190129680       -2.1104264282       -2.3286449014
 H          1.8397864668       -1.5582936961       -2.4381017993
 H          5.8038360054       -3.1590555198        0.9227795021
 H          5.2383324171       -1.8260001010        1.9370400620
 H          5.2187162704       -1.9789502711       -1.1038127135
 H          6.1137919582       -0.8566852143       -0.0624688175
 O          4.2813591369        0.6522613957        0.5452160555
 C          3.3181846148        1.6358617954        0.6941365672
 O          3.6486856725        2.5719162271        1.4501913521
 O          0.7670122359        0.2381162732       -1.4686514629
 C          1.0706013188        2.5858591789        0.1832091473
 C         -0.1923562934        1.9706712251        0.7338176112
 C         -0.1355280871        1.3305478331        1.9697640328
 C         -1.2538520997        0.7200783640        2.5033192401
 C         -2.4529385858        0.7234122263        1.8110646228
 C         -2.5167201464        1.3501869287        0.5745392075
 C         -1.3948350738        1.9790649243        0.0476564353
 H         -1.4645379987        2.4604737382       -0.9147260914
 N         -3.7218189037        1.3404023007       -0.1454697151
 S         -4.6217766242       -0.0685216133       -0.1687766904
 O         -5.3656978135       -0.0172648828       -1.4083931649
 O         -5.4181890785       -0.1516449586        1.0313439628
 C         -3.4476707914       -1.4125071940       -0.2018804918
 C         -2.4621235961       -1.4100428773       -1.1684242950
 C         -1.5525420525       -2.4536866527       -1.2002760182
 C         -1.6441519110       -3.4791901103       -0.2719955148
 C         -2.6421770061       -3.4699033386        0.6901156814
 C         -3.5530547362       -2.4266718004        0.7285647986
 H         -4.3406927207       -2.3761773807        1.4630121238
 H         -2.7106981778       -4.2686935220        1.4110831227
 H         -0.9315874958       -4.2887376504       -0.2991509901
 H         -0.7689219074       -2.4471829240       -1.9402269195
 H         -2.3987968558       -0.6012344604       -1.8778772235
 H         -3.6553009834        1.7489196550       -1.0660514068
 H         -3.3361808727        0.2538750994        2.2126977480
 H         -1.1941327928        0.2327339938        3.4646629726
 H          0.8050955551        1.3166980349        2.5040598852
 H          1.4744790855        3.2738922237        0.9390379026
 C          0.8782331430        3.3458379366       -1.1120738580
 C          0.3162960393        4.7348379759       -1.0887390909
 C          1.7651239655        4.5170222040       -1.4040301301
 H          2.1015499688        4.6688092519       -2.4187647515
 H          2.4998332696        4.7822577766       -0.6577412869
 H         -0.3407359866        5.0416436989       -1.8887066917
 H          0.0641622651        5.1550627359       -0.1268707211
 H          0.6190443358        2.7017687700       -1.9444138718
