  62
        -98.94528575
 C         -1.7235066993       -0.5490730635        0.8401972509
 C         -2.0755003397       -0.0033429472       -0.4200292509
 C         -2.1903070508        1.4634308682       -0.4754208461
 C         -1.9038758091        2.1939207249        0.6157570989
 C         -1.9683131543        3.6917011286        0.6956165446
 C         -0.6224888923        4.3451146907        0.3559938974
 C          0.0049536199        3.8441808680       -0.9450605264
 H          0.9176289697        4.4222246095       -1.1104119324
 H          0.3101176245        2.8010096015       -0.8353450345
 C         -0.9012838711        3.9575014960       -2.1782907160
 H         -0.3081418746        4.3436833482       -3.0100130324
 H         -1.7043455385        4.6722580416       -1.9909745337
 C         -1.4956238270        2.6242743932       -2.6377967759
 H         -1.8853835361        2.7540820887       -3.6515004721
 H         -0.7020870653        1.8730133525       -2.6815961110
 C         -2.6370368841        2.0703914816       -1.7749527045
 H         -3.3811801471        2.8518072482       -1.6014025318
 H         -3.1128011230        1.2603492401       -2.3359094809
 H          0.0775075981        4.1488590770        1.1716871717
 H         -0.7735120775        5.4247359327        0.2927950414
 H         -2.7373201104        4.0491456655        0.0132233461
 H         -2.2455772099        3.9660307984        1.7153804837
 O         -1.4949248892        1.6399317065        1.7866631733
 C         -1.3845196925        0.2642375289        1.9232200700
 O         -0.9758218689       -0.1037849079        3.0426089110
 H          0.8274980323       -1.1566514336        0.3995695512
 C          0.5431234358       -1.9628677459       -0.2607249417
 C         -0.6849691673       -2.5840378537       -0.0714097938
 C         -1.0392944227       -3.6263883048       -0.9158364064
 C         -0.1882324849       -4.0109932491       -1.9383641231
 C          1.0106514601       -3.3561287118       -2.1532529650
 C          1.3746917708       -2.3128612494       -1.3090119605
 N          2.5767813488       -1.6088265945       -1.4829691376
 S          2.5947948654        0.0413648998       -1.1875749631
 O          1.3309460022        0.6634010604       -1.4988379940
 O          3.7404910823        0.5237049771       -1.9315273835
 C          2.9514004616        0.1685410381        0.5516860578
 C          4.0500562951       -0.5069391621        1.0452018110
 C          4.3396090052       -0.4152386782        2.3969165660
 C          3.5302923650        0.3449711567        3.2281553278
 C          2.4343325206        1.0226153051        2.7170156727
 C          2.1433534949        0.9369158393        1.3651990149
 H          1.2893269848        1.4381296759        0.9350199420
 H          1.7918225632        1.6013368657        3.3614916085
 H          3.7502976617        0.4096934737        4.2820489900
 H          5.1909103348       -0.9395697198        2.8001959943
 H          4.6521931022       -1.0882370318        0.3671091659
 H          3.0937805588       -1.8472202189       -2.3168896415
 H          1.6557422394       -3.6390708544       -2.9713018963
 H         -0.4748820051       -4.8192092243       -2.5943031102
 H         -1.9907409719       -4.1177577854       -0.7947608553
 C         -1.5473092528       -2.0463554991        1.0434917267
 H         -0.9719743204       -2.1344190997        1.9805311777
 C         -2.8368199213       -2.8230310561        1.2568500422
 C         -4.0528258196       -2.1554943939        1.8251712803
 C         -4.0522397659       -2.6270830866        0.4035157301
 H         -4.6454485028       -3.4949104455        0.1538773775
 H         -3.9959370764       -1.8943572791       -0.3851311514
 H         -4.6443333703       -2.6954403443        2.5492964533
 H         -3.9972837441       -1.0923244946        2.0105551265
 H         -2.6436452883       -3.8348911969        1.6001240853
 O         -2.3090313906       -0.6926670066       -1.4458064260
