  62
        -98.94390561
 C          1.9685544711        1.2330077304       -0.1938563381
 C          2.3269413310        0.0366450211       -0.8612383593
 C          3.7602132910       -0.2957470391       -0.8520100294
 C          4.6277690910        0.5292035501       -0.2386533583
 C          6.1021265909        0.2813739497       -0.1080943382
 C          6.4257672305       -0.4797941117        1.1852349210
 C          5.5562419203       -1.7171222018        1.4089350095
 H          4.5216055203       -1.4035446419        1.5665813696
 H          5.8935426100       -2.1885143629        2.3345702990
 C          5.6045282804       -2.7419759406        0.2671269584
 H          5.7076384302       -3.7406923111        0.6966149073
 H          6.4832482806       -2.5642541700       -0.3539309713
 C          4.3566108506       -2.7649897195       -0.6175797319
 H          3.4635832805       -2.8496609400        0.0072985278
 H          4.4009972206       -3.6587567788       -1.2458671229
 C          4.1781228110       -1.5596596184       -1.5492181807
 H          3.3697677411       -1.7972711075       -2.2473032011
 H          5.0925234711       -1.3997608579       -2.1243366003
 H          6.2812350704        0.1968989574        2.0304874717
 H          7.4771247705       -0.7718749618        1.1594696009
 H          6.4472584510       -0.2844482594       -0.9712156288
 H          6.6126949210        1.2456331797       -0.0891438271
 O          4.2462466610        1.6739259795        0.3831159129
 C          2.9139336910        2.0465881796        0.4332303030
 O          2.7006504711        3.1075794389        1.0538784641
 H         -1.3216643790       -0.2431013183       -0.9372150804
 C         -1.1437951692       -0.2379261495        0.1242677596
 C         -0.2555543092        0.6619323598        0.6902521608
 C         -0.0242599195        0.6024555782        2.0632924108
 C         -0.6633764198       -0.3375766426        2.8471370696
 C         -1.5527108298       -1.2336504218        2.2788679285
 C         -1.7875499495       -1.1866587403        0.9100334085
 N         -2.6612742695       -2.1079555495        0.3130363073
 S         -3.7744582392       -1.6524069781       -0.8444907525
 O         -4.6432569693       -2.8013215278       -0.9751394339
 O         -3.1130583589       -1.2098448969       -2.0441712319
 C         -4.6725744192       -0.3046521988       -0.0972650212
 C         -5.7757196394       -0.5991544695        0.6805980082
 C         -6.4497698194        0.4353174999        1.3086377392
 C         -6.0057782092        1.7402879000        1.1563983708
 C         -4.8955341089        2.0188034007        0.3744234813
 C         -4.2189918989        0.9887741913       -0.2601812397
 H         -3.3553051688        1.1703831719       -0.8777931693
 H         -4.5515004088        3.0337062008        0.2542070325
 H         -6.5290887191        2.5457916896        1.6469346615
 H         -7.3161110995        0.2220832694        1.9138573088
 H         -6.0922046695       -1.6263505195        0.7628256570
 H         -3.0691095397       -2.7722135201        0.9543382164
 H         -2.0498086100       -1.9736245624        2.8876718075
 H         -0.4720463900       -0.3732223337        3.9090042596
 H          0.6765732205        1.3000434176        2.5017035317
 C          0.5154049311        1.6761488405       -0.1186852979
 H          0.5219378211        2.6221092199        0.4406053031
 C         -0.0482656385        1.9364329221       -1.4988553277
 C         -1.2189308184        2.8578073925       -1.6582870670
 C          0.1429435418        3.2904021628       -2.1107218662
 H          0.3404695320        3.3538810139       -3.1703092361
 H          0.6664985417        4.0314049921       -1.5239817953
 H         -1.6197962085        3.3128908315       -0.7649378666
 H         -1.9573963683        2.6269103234       -2.4118962674
 H          0.0205056315        1.0813211628       -2.1605509887
 O          1.5034351611       -0.7189542382       -1.4401518803
