  62
        -98.94490392
 C         -1.8632691184       -0.3960369276        0.0441079672
 C         -2.9266751149       -0.4888300063        0.9821406643
 C         -4.0876077951        0.3776557704        0.7478561952
 C         -4.0788748688        1.2124897935       -0.3068297968
 C         -5.2134610327        2.1121700571       -0.7002702263
 C         -6.1619871237        1.4124568710       -1.6839678560
 C         -6.5921206044        0.0144530902       -1.2394345422
 H         -7.2821198846       -0.3685556564       -1.9943994718
 H         -5.7198886674       -0.6431710888       -1.2381570875
 C         -7.2646219032       -0.0347148820        0.1396277514
 H         -7.6018684259        0.9628837753        0.4234089819
 H         -8.1506953109       -0.6697218283        0.0747068054
 C         -6.3863632295       -0.6081783568        1.2532555953
 H         -7.0212273904       -0.7991150584        2.1225326833
 H         -5.9709703589       -1.5675465760        0.9347868992
 C         -5.2307263095        0.2865109757        1.7190163490
 H         -5.6100850950        1.2814351553        1.9611724651
 H         -4.8154585531       -0.1538537566        2.6301901746
 H         -7.0440411152        2.0411521426       -1.8187222694
 H         -5.6569250073        1.3246081166       -2.6487204380
 H         -5.7571586477        2.4135243198        0.1930849881
 H         -4.7985577255        3.0010249252       -1.1787285886
 O         -3.0369708963        1.2939560886       -1.1696152552
 C         -1.9099119497        0.4968993699       -1.0262488237
 O         -1.0529810204        0.6961182436       -1.9118614903
 O         -2.9049157802       -1.2708474779        1.9694061725
 C         -0.6749543087       -1.3142055561        0.2783598882
 C          0.4733912745       -0.5839319142        0.9323376837
 C          0.9070443338       -0.9306606156        2.2063176306
 C          1.9810040510       -0.2796429671        2.7889304156
 C          2.6447635740        0.7274703338        2.1121749503
 C          2.2130901670        1.0852456591        0.8414523598
 C          1.1406852145        0.4285794842        0.2572877558
 H          0.8066657054        0.7174432592       -0.7281115072
 N          2.8968129141        2.0983724609        0.1361807400
 S          4.5269845749        1.7977270105       -0.1214018579
 O          5.2615827738        2.1087324880        1.0793283861
 O          4.8868841435        2.5564367622       -1.2981923405
 C          4.6035676651        0.0453642599       -0.4456345593
 C          5.1003851176       -0.8122375477        0.5143685208
 C          5.0750442780       -2.1760163026        0.2704932196
 C          4.5517351422       -2.6555383351       -0.9199014266
 C          4.0586141888       -1.7802660626       -1.8754277123
 C          4.0792753047       -0.4162497784       -1.6365792364
 H          3.7052732691        0.2927482070       -2.3582245605
 H          3.6540360253       -2.1533487552       -2.8028272962
 H          4.5281241477       -3.7178352567       -1.1054524016
 H          5.4583287114       -2.8594863058        1.0107346420
 H          5.4976290152       -0.3971192621        1.4258836170
 H          2.4463241483        2.3348419822       -0.7369198911
 H          3.4883177867        1.2420262048        2.5433835997
 H          2.3055740005       -0.5600329615        3.7792542536
 H          0.3882265926       -1.7101268046        2.7447629796
 H         -1.0365829859       -2.0686082577        0.9896521863
 C         -0.2030363969       -2.0242248056       -0.9764456867
 C          0.6202522088       -3.2680956810       -0.8377375293
 C         -0.7913189379       -3.3546000778       -1.3338802647
 H         -0.9626278329       -3.5777889767       -2.3763132015
 H         -1.5415168648       -3.7636970699       -0.6728169430
 H          1.4235598736       -3.4326775413       -1.5383175504
 H          0.8288318016       -3.6191705520        0.1611805072
 H          0.0322454699       -1.3509368986       -1.7900147772
