  62
        -98.93991289
 C         -2.4939265929       -1.0370616128        0.3636374086
 C         -2.4253958313        0.1360946891        1.1608414193
 C         -3.4697474850        1.1402669423        0.9341852573
 C         -4.4405052133        0.8985244572        0.0348111830
 C         -5.6024296664        1.8004405811       -0.2824678079
 C         -5.2817171355        2.8994415275       -1.3042774875
 C         -4.3939481639        4.0303839627       -0.7838306057
 H         -4.4269819315        4.8313554046       -1.5248840362
 H         -4.8143008769        4.4248656582        0.1416682437
 C         -2.9291470605        3.6307149539       -0.5558899645
 H         -2.7166574205        2.6981099395       -1.0843190695
 H         -2.2714121171        4.3926722631       -0.9802412858
 C         -2.5362299630        3.4639955271        0.9123925550
 H         -2.6109395457        4.4265055498        1.4237349985
 H         -1.4915060599        3.1420567514        0.9522471797
 C         -3.3791102364        2.4369423879        1.6801378179
 H         -2.8888156312        2.2372071208        2.6362058107
 H         -4.3748284415        2.8362332884        1.8730813914
 H         -6.2317529148        3.3312770352       -1.6270031982
 H         -4.8113805670        2.4392250217       -2.1761370842
 H         -5.9735385160        2.2539399498        0.6369682450
 H         -6.3853435463        1.1621945233       -0.6974508083
 O         -4.4871726267       -0.2466081542       -0.6920790293
 C         -3.5102506238       -1.2265806596       -0.5734254849
 O         -3.6871264574       -2.1914343127       -1.3418578445
 O         -1.5388748636        0.3273056548        2.0374448333
 C         -1.4022597706       -2.0728573739        0.5752281528
 C         -0.3409115378       -1.9601509639       -0.4937426907
 C         -0.5778675582       -2.3583192215       -1.8056399739
 C          0.4142380913       -2.2363380214       -2.7609818138
 C          1.6539524377       -1.7178034404       -2.4314757989
 C          1.9023227074       -1.3195199949       -1.1228580799
 C          0.9050917744       -1.4438309482       -0.1654524554
 H          1.1014508638       -1.1133641630        0.8438391947
 N          3.1700881712       -0.8338156366       -0.7576873755
 S          3.2894661494        0.3774163429        0.4127882164
 O          3.1185952202       -0.2154960491        1.7147669737
 O          2.4169629013        1.4812796144        0.0787256848
 C          4.9968731624        0.8437819027        0.1934992629
 C          5.9738882189        0.0148646071        0.7124321358
 C          7.3054081399        0.3484000854        0.5236715983
 C          7.6367127949        1.4995423892       -0.1759138340
 C          6.6456066907        2.3231550629       -0.6878867293
 C          5.3114409205        1.9938473883       -0.5047485984
 H          4.5071059549        2.6068570386       -0.8787812785
 H          6.9059591766        3.2192196430       -1.2278529793
 H          8.6738559709        1.7576440940       -0.3207261268
 H          8.0784813324       -0.2882329940        0.9226816055
 H          5.6680467572       -0.8628616148        1.2573384350
 H          3.7443177359       -0.6142033033       -1.5608779662
 H          2.4256333992       -1.6239016899       -3.1805551580
 H          0.2177386516       -2.5438968802       -3.7770843917
 H         -1.5512597869       -2.7392165540       -2.0720993104
 H         -0.9337593688       -1.7987006420        1.5309972179
 C         -1.9251970528       -3.4912048840        0.6891788126
 C         -1.0578322132       -4.5285666338        1.3343180170
 C         -2.2840678296       -4.0325703625        2.0387822924
 H         -3.1367160386       -4.6899246193        2.1189984087
 H         -2.1546945529       -3.3793291308        2.8897664918
 H         -1.0653780905       -5.5294802087        0.9313738197
 H         -0.0956974499       -4.2100851751        1.7074680798
 H         -2.5412623060       -3.7951941716       -0.1464574042
