  62
        -98.94143402
 C          1.2355485219        1.1235713101       -0.0623718887
 C          1.6565662061        0.0614885740        0.7703994338
 C          2.7006660057       -0.8225329550        0.2294344673
 C          3.1522610723       -0.6188039161       -1.0197252148
 C          4.1684351275       -1.4243139607       -1.7902420195
 C          5.4344238672       -1.8691905039       -1.0440524927
 C          5.9221638940       -0.9023719163        0.0450106144
 H          6.9838025639       -0.7014138733       -0.1098591572
 H          5.3945511473        0.0493968622       -0.0367326660
 C          5.7518026547       -1.4618569456        1.4595154107
 H          6.4271041479       -0.9274746010        2.1319306845
 H          6.0538695020       -2.5114254992        1.4589678736
 C          4.3453261465       -1.3469710746        2.0461201773
 H          4.1214615895       -0.3000083936        2.2676085104
 H          4.3318285550       -1.8864862029        2.9961274017
 C          3.2117479184       -1.8860165555        1.1581017598
 H          3.5210636504       -2.7771816514        0.6169043225
 H          2.3710445381       -2.1511765965        1.8054944226
 H          5.2681938625       -2.8496617804       -0.5996578136
 H          6.2151962823       -1.9943889533       -1.7961805071
 H          3.6617823725       -2.3050777177       -2.1966279359
 H          4.4455235646       -0.7937506360       -2.6386328265
 O          2.6848907406        0.3905801870       -1.8078561641
 C          1.7198013003        1.2793323845       -1.3596172063
 O          1.3890452618        2.1422526463       -2.1952849187
 H         -0.8318360165       -0.1646171287       -0.6165798858
 C         -1.4665478283        0.6818517915       -0.8275530834
 C         -1.0904666038        1.9455659823       -0.3945641505
 C         -1.9088306359        3.0228548588       -0.7116454007
 C         -3.0615524924        2.8301078374       -1.4535203636
 C         -3.4383687985        1.5662245114       -1.8704717761
 C         -2.6293495816        0.4813209989       -1.5528366143
 N         -2.9673156396       -0.8222800971       -1.9462216962
 S         -2.6196810663       -2.1007420341       -0.9253234259
 O         -1.2133121544       -2.4156596597       -0.9696937954
 O         -3.5127293490       -3.1538225746       -1.3613484917
 C         -3.1059891750       -1.5330548957        0.6948504635
 C         -2.1648011947       -1.2335302650        1.6576960891
 C         -2.5934387273       -0.7423687483        2.8814748166
 C         -3.9458589930       -0.5607043840        3.1216100579
 C         -4.8808721140       -0.8756536332        2.1466938248
 C         -4.4589819916       -1.3633729847        0.9214905684
 H         -5.1548338305       -1.6299529234        0.1426404061
 H         -5.9331333657       -0.7391649024        2.3369764917
 H         -4.2717923369       -0.1741534485        4.0743445383
 H         -1.8575304407       -0.4995922166        3.6315890436
 H         -1.1151197121       -1.3739002894        1.4514220711
 H         -3.8734249210       -0.9177651637       -2.3801726068
 H         -4.3405035669        1.4186108386       -2.4438217281
 H         -3.6819047408        3.6771560118       -1.7036710216
 H         -1.6395425353        4.0141258976       -0.3858449906
 C          0.1629093065        2.0716244768        0.4375222279
 H         -0.0792095346        1.7259301811        1.4547640886
 C          0.6929782557        3.4882881242        0.5179700088
 C          0.1957614132        4.4267141196        1.5756566117
 C          1.5809188135        3.8630648403        1.6657025107
 H          2.4207121723        4.5147989868        1.4768735386
 H          1.7777044494        3.1030081903        2.4078853875
 H         -0.5457644297        4.0550661923        2.2664454422
 H          0.0856808017        5.4714104670        1.3266502619
 H          0.9377787586        3.8945742276       -0.4568856692
 O          1.1708763855       -0.1474810553        1.9152921741
