  62
        -98.94184392
 C          0.7810705290        1.3364793995        0.6018351061
 C          1.2022568738        0.6019738749       -0.5301554465
 C          2.1716911326       -0.4806073979       -0.2780934356
 C          2.4769928623       -0.8060937020        0.9893590029
 C          3.3906889591       -1.8972295879        1.4922780423
 C          4.7128119151       -2.1122703485        0.7456412296
 C          5.3690362322       -0.8263425359        0.2222740795
 H          4.8654447550        0.0463258705        0.6421505434
 H          6.4072709971       -0.7950417396        0.5580416762
 C          5.3646839174       -0.7308452298       -1.3050524792
 H          6.1323337814       -0.0169041601       -1.6129834311
 H          5.6388721308       -1.7037763421       -1.7182935712
 C          4.0453851590       -0.2750563013       -1.9269838196
 H          4.1475094846       -0.3376014270       -3.0128217095
 H          3.8651409376        0.7750856768       -1.6816007226
 C          2.8033108314       -1.0773020883       -1.5027807691
 H          2.0548765772       -0.9855094055       -2.2937019312
 H          3.0463015815       -2.1274334110       -1.3691761877
 H          4.5583834393       -2.7987177314       -0.0851785030
 H          5.3893474753       -2.6098966609        1.4427799244
 H          2.8298833270       -2.8366078853        1.5093399471
 H          3.5991230155       -1.6352671791        2.5327846369
 O          1.9288743623       -0.1580302967        2.0597536808
 C          1.1250311378        0.9562287280        1.8967673838
 O          0.7828754651        1.5081329009        2.9636739837
 O          0.8044519417        0.8432589585       -1.6981859505
 C         -0.0817522752        2.5718724736        0.4265551158
 C         -1.3941236446        2.2192223766       -0.2284505625
 C         -1.9432285547        2.9428033387       -1.2792665390
 C         -3.1674480384        2.5805057399       -1.8135803837
 C         -3.8671461204        1.4982143049       -1.3136175646
 C         -3.3296910136        0.7736198805       -0.2549781854
 C         -2.1028606870        1.1359910093        0.2765856288
 H         -1.6971574019        0.5742130377        1.1061496118
 N         -4.0258416571       -0.3142507532        0.2921104577
 S         -3.2144338074       -1.6140904593        0.9380194029
 O         -4.2054481140       -2.6710798259        0.9592201722
 O         -2.6429373109       -1.2763061583        2.2182197539
 C         -1.9299196958       -2.0644026177       -0.2147738569
 C         -0.7480851777       -2.5664327649        0.2892373502
 C          0.2119761153       -3.0367999363       -0.5909798256
 C         -0.0176360849       -2.9832660463       -1.9561952462
 C         -1.2014153540       -2.4585352562       -2.4484238060
 C         -2.1731698586       -2.0040696277       -1.5722610141
 H         -3.1066068909       -1.6059434358       -1.9347332500
 H         -1.3728117919       -2.4057174428       -3.5113958429
 H          0.7311347271       -3.3517235525       -2.6391649563
 H          1.1330861149       -3.4441834362       -0.2073074374
 H         -0.6023166078       -2.5745881943        1.3586587629
 H         -4.8642852410       -0.5888469377       -0.1977024975
 H         -4.8227667451        1.2173808948       -1.7290664229
 H         -3.5814620984        3.1482721535       -2.6326898064
 H         -1.4129242300        3.7899012608       -1.6813625896
 H         -0.3037170864        2.9308231199        1.4429990840
 C          0.6973139271        3.6421871128       -0.3108552337
 C          0.4250905836        5.0921543212       -0.0501114441
 C          1.6904343798        4.4651696148        0.4512403346
 H          2.6224874240        4.7253048478       -0.0277560496
 H          1.7839477796        4.2724998888        1.5106363005
 H          0.4921071648        5.7869460470       -0.8736376542
 H         -0.3388835977        5.3355318072        0.6728128370
 H          0.9654612150        3.3422734368       -1.3173010782
