  62
        -98.94371325
 C          1.7631646888        0.4140932647       -0.3286396909
 C          2.9598798426        0.7866932655       -0.9854028615
 C          4.1874593344        0.6675405956       -0.1908807798
 C          4.1168391509        0.2545280832        1.0878868350
 C          5.2771577024        0.1066331297        2.0344450648
 C          6.0225762830       -1.2285356004        1.9024786754
 C          6.8854087432       -1.3702954778        0.6479107411
 H          7.5477176892       -0.5080323255        0.5642553095
 H          7.5146139647       -2.2512654978        0.7897673189
 C          6.0884759267       -1.5379752822       -0.6533682238
 H          5.0612863989       -1.8252384958       -0.4174864018
 H          6.5203585746       -2.3498422605       -1.2429451984
 C          6.0614812984       -0.2964339158       -1.5449186213
 H          5.4423491444       -0.5155838101       -2.4185861240
 H          7.0718071578       -0.0746212727       -1.8958235863
 C          5.4944422063        0.9569582407       -0.8653326768
 H          6.2135741128        1.3548927512       -0.1496253656
 H          5.3117172690        1.7114057014       -1.6346278586
 H          6.6709514691       -1.3273586234        2.7761220862
 H          5.2925561840       -2.0404121925        1.9366204215
 H          5.9762757084        0.9308107419        1.8902132288
 H          4.8648241335        0.1726710884        3.0435332487
 O          2.9420443147       -0.0684968773        1.6909822652
 C          1.7405778269       -0.0151451442        0.9985295193
 O          0.7483695170       -0.3635516533        1.6648238950
 O          2.9987571224        1.2068456118       -2.1733599114
 C          0.4518099627        0.4920908599       -1.0884727747
 C         -0.5033091540        1.4196459840       -0.3799718235
 C         -0.0601528636        2.6875673765       -0.0102009896
 C         -0.8970870160        3.5618933549        0.6539386350
 C         -2.1973773876        3.1955840398        0.9561313566
 C         -2.6529293220        1.9373394360        0.5842443040
 C         -1.8075701377        1.0602104303       -0.0827809807
 H         -2.1803586429        0.0912582486       -0.3669284680
 N         -3.9535879821        1.5262033657        0.9018456409
 S         -4.8173197602        0.5276242585       -0.1185955740
 O         -4.5715095958        0.8403304507       -1.5072121482
 O         -6.1895208146        0.6613860731        0.3232504373
 C         -4.2511628482       -1.1200157223        0.2486403380
 C         -4.1762307528       -2.0388005376       -0.7796773888
 C         -3.7687866492       -3.3327001176       -0.4960356451
 C         -3.4469696630       -3.6839859302        0.8057447834
 C         -3.5318390283       -2.7507871988        1.8276445282
 C         -3.9410639557       -1.4561275637        1.5511336484
 H         -4.0098406111       -0.7067836354        2.3218159814
 H         -3.2758431414       -3.0260793301        2.8381559621
 H         -3.1257958955       -4.6901876079        1.0247657050
 H         -3.7015973722       -4.0601890813       -1.2894868200
 H         -4.4264672905       -1.7183607417       -1.7788024699
 H         -4.5344830105        2.2206681461        1.3471450603
 H         -2.8515168412        3.8762090980        1.4795530331
 H         -0.5373165690        4.5395490989        0.9379313663
 H          0.9555324098        2.9749538891       -0.2463694373
 H          0.7032045936        0.9397736699       -2.0618560533
 C         -0.1052911580       -0.8966120980       -1.3207794039
 C         -0.9914178003       -1.1677429636       -2.4983984112
 C          0.4093247117       -1.6993086554       -2.4764697602
 H          0.5562868519       -2.7603710872       -2.3428282418
 H          1.1454353091       -1.2331279370       -3.1151278036
 H         -1.8063171738       -1.8649444563       -2.3769295048
 H         -1.2165651356       -0.3414849843       -3.1559291483
 H         -0.3089100945       -1.4241627004       -0.3952234342
