  62
        -98.93590422
 C          1.3180340434        1.5565434430        0.1916477217
 C          2.2652732026        0.9658545309        1.0631506701
 C          3.1970360901       -0.0207458955        0.4824217378
 C          3.0607496900       -0.3488236917       -0.8152555801
 C          3.9077409112       -1.2877407301       -1.6333593939
 C          3.6254981546       -2.7732093214       -1.3539570099
 C          3.4003022269       -3.1208817985        0.1153426536
 H          3.0641625366       -4.1597698307        0.1670645528
 H          2.5977822516       -2.4975000652        0.5140210228
 C          4.6350857103       -2.9926159981        1.0040366181
 H          5.4109228512       -3.6694727770        0.6386412805
 H          4.3524997082       -3.3228429206        2.0069296633
 C          5.2336758819       -1.5900501823        1.1160060574
 H          5.7774199591       -1.3245273625        0.2134176410
 H          5.9693575643       -1.6138597017        1.9254665233
 C          4.2319392252       -0.4961665914        1.4731192749
 H          4.7886945226        0.4004629618        1.7726146019
 H          3.6751809954       -0.7986188059        2.3675757295
 H          4.4563430733       -3.3620672487       -1.7461817688
 H          2.7272038419       -3.0517551211       -1.9090143464
 H          4.9579438594       -1.0561349348       -1.4774151181
 H          3.6782164791       -1.0816091640       -2.6812772897
 O          2.0577601665        0.1577435854       -1.5857960327
 C          1.1716541111        1.1204829525       -1.1253774493
 O          0.3312433059        1.4742384534       -1.9712958727
 O          2.3444359699        1.2582755569        2.2870820167
 C          0.4376728735        2.6574379184        0.7552147319
 C         -1.0047637592        2.4364239857        0.3817158180
 C         -1.6759822409        3.2180847750       -0.5494198270
 C         -2.9933044824        2.9470009383       -0.8745898908
 C         -3.6726947527        1.9043030050       -0.2716321096
 C         -3.0108978202        1.1168553825        0.6614302692
 C         -1.6879436813        1.3850412976        0.9812848198
 H         -1.1709237333        0.7643009301        1.7031292096
 N         -3.7079085241        0.0572293351        1.2836797118
 S         -4.1592635034       -1.2438038195        0.3345622628
 O         -4.8446463535       -0.7563677616       -0.8334976428
 O         -4.9118473341       -2.1191095376        1.2037965974
 C         -2.6333177565       -2.0454029254       -0.1276568175
 C         -1.7899365023       -1.4245700865       -1.0279894325
 C         -0.5896960844       -2.0389703147       -1.3499406323
 C         -0.2573948672       -3.2544662623       -0.7721916252
 C         -1.1133145268       -3.8627686369        0.1331096746
 C         -2.3111374571       -3.2513738635        0.4638584935
 H         -3.0089975503       -3.6862562217        1.1611589885
 H         -0.8487798688       -4.8072538166        0.5806273517
 H          0.6752487887       -3.7309914835       -1.0286288678
 H          0.0795248706       -1.5524926760       -2.0426332695
 H         -2.0649963493       -0.4776422836       -1.4657781611
 H         -3.2519200822       -0.2869096871        2.1174758512
 H         -4.6944501641        1.6735405021       -0.5244075213
 H         -3.4990721083        3.5569056495       -1.6077629808
 H         -1.1567212517        4.0236277067       -1.0417396398
 H          0.5272726143        2.5464145612        1.8484516905
 C          0.9244037135        4.0609253088        0.4217451778
 C          2.3888738194        4.3623413635        0.3201368792
 C          1.5263137029        4.4169988728       -0.9032447961
 H          1.2975438152        5.3847836196       -1.3252223401
 H          1.6241514437        3.6341740146       -1.6392602081
 H          2.7535260556        5.2890153326        0.7369919716
 H          3.0773387676        3.5362410275        0.4235895200
 H          0.3094547497        4.8206943517        0.8945890576
