  62
        -98.93883430
 C         -2.5824992177        0.1224900710        0.4464732861
 C         -2.2531514460        0.7847811849       -0.7590930556
 C         -1.7557670832        2.1659311162       -0.6352716229
 C         -1.6377047240        2.7169920127        0.5847587221
 C         -1.2017735302        4.1112825041        0.9664040547
 C         -0.0651101728        4.7615586632        0.1717840016
 C          1.0746396017        3.8130876457       -0.2266144230
 H          2.0257643216        4.2531876519        0.0800286924
 H          0.9767193259        2.8572239648        0.2923853014
 C          1.1363390570        3.5527947899       -1.7328095937
 H          0.9797942141        4.4930367615       -2.2670847860
 H          2.1368508501        3.1927152563       -1.9833134285
 C          0.1398019065        2.5119822571       -2.2368061373
 H          0.3821299652        1.5393825908       -1.7983621070
 H          0.2567015998        2.4209288373       -3.3196730556
 C         -1.3354045453        2.8160180535       -1.9222658473
 H         -1.5259860475        3.8866143301       -1.9165336991
 H         -1.9506584835        2.3573045774       -2.7011953461
 H         -0.4684610919        5.2336157860       -0.7229944496
 H          0.3306994070        5.5630996235        0.7986715258
 H         -2.0828339123        4.7598923452        0.9230931941
 H         -0.9119130125        4.0366823395        2.0179255781
 O         -1.9798914490        2.0427340150        1.7224295804
 C         -2.4220268843        0.7330202973        1.6865147076
 O         -2.6460077289        0.2321160976        2.8103981774
 H         -0.3806949613       -0.9927257777        0.6827085245
 C         -0.5911478543       -1.8007308790       -0.0025514694
 C         -1.9118647256       -2.1456463970       -0.2599503636
 C         -2.1623941033       -3.2119597186       -1.1128022978
 C         -1.1109483493       -3.8913612262       -1.7059634577
 C          0.1997140088       -3.5146051547       -1.4811711613
 C          0.4604457378       -2.4453903714       -0.6286439937
 N          1.7745665487       -1.9869071178       -0.4395908893
 S          2.1541169013       -0.8368228310        0.7229272361
 O          1.9394965632       -1.3696696650        2.0529389381
 O          1.4867732781        0.3991656965        0.4078375342
 C          3.9006314651       -0.6697944127        0.4111468020
 C          4.3132080283        0.2169840425       -0.5648940103
 C          5.6672485814        0.3351973001       -0.8347320291
 C          6.5812323122       -0.4329872030       -0.1287035216
 C          6.1528035241       -1.3173590512        0.8498247381
 C          4.7996616559       -1.4397411499        1.1244365431
 H          4.4216818257       -2.1040523711        1.8849600518
 H          6.8661000477       -1.9100229838        1.3995365725
 H          7.6346310938       -0.3392088613       -0.3402880843
 H          6.0036604367        1.0245137530       -1.5922394556
 H          3.5642717264        0.7968002367       -1.0795572489
 H          2.4840666652       -2.6981302301       -0.5376537989
 H          1.0144743556       -4.0296099742       -1.9658129627
 H         -1.3179220975       -4.7207770406       -2.3652104560
 H         -3.1785778753       -3.5070676071       -1.3180895611
 C         -2.9970664808       -1.3371706711        0.4131364800
 H         -3.0665753870       -1.6595555843        1.4636196911
 C         -4.3540466544       -1.4965319473       -0.2408767952
 C         -5.2828928055       -2.5887225199        0.1947433446
 C         -5.5806681963       -1.1645781805        0.5527162372
 H         -6.3976192613       -0.6643545165        0.0549579608
 H         -5.4349055684       -0.8503251991        1.5764090556
 H         -4.9472378449       -3.2468622131        0.9821058123
 H         -5.9014921018       -3.0670311100       -0.5496059327
 H         -4.3424912270       -1.2165397583       -1.2878326811
 O         -2.3760506022        0.2512468430       -1.8928577809
