  62
        -98.93128129
 C          2.0155839301        0.9452371896       -0.4346379301
 C          2.8500967300        0.5955630094        0.6571265499
 C          3.4600921097       -0.7425970808        0.6369796300
 C          3.1776392994       -1.5718726407       -0.3817282500
 C          3.6368464090       -2.9934239409       -0.5936168999
 C          5.1028546389       -3.3188770113       -0.2776464900
 C          6.0949397892       -2.1824219116       -0.5649816900
 H          6.9094048191       -2.5692617518       -1.1802062601
 H          5.6024744694       -1.3927101915       -1.1350554701
 C          6.7065122894       -1.5886457517        0.7062057999
 H          6.9656759592       -2.4047521717        1.3840384199
 H          7.6340950596       -1.0749824519        0.4425781199
 C          5.8274707197       -0.5824227814        1.4479838299
 H          6.3268967698       -0.3259701515        2.3852761899
 H          5.7463691400        0.3392723986        0.8655678498
 C          4.3998683396       -1.0567427110        1.7657838299
 H          4.0382980898       -0.4838898408        2.6239986599
 H          4.3822960793       -2.1134143210        2.0213552300
 H          5.1931234489       -3.6138626213        0.7667031800
 H          5.3664848187       -4.1931401414       -0.8752856199
 H          3.4328115489       -3.2024457209       -1.6467001599
 H          2.9873979888       -3.6489440507       -0.0058115199
 O          2.3576532395       -1.2050896506       -1.4055264700
 C          1.7534198698        0.0470198896       -1.4689964300
 O          1.0544752499        0.2039522998       -2.4864483300
 O          3.0762637403        1.3811005994        1.6170248399
 C          1.3858694105        2.3247075898       -0.3658950601
 C          0.1799587305        2.3089095801        0.5402355599
 C         -0.0362700792        3.3352599802        1.4528017299
 C         -1.1570819792        3.3306155706        2.2635152099
 C         -2.0855452794        2.3102270508        2.1714590400
 C         -1.8701558998        1.2697665307        1.2736438700
 C         -0.7394829598        1.2723805204        0.4695778700
 H         -0.5829400200        0.4592023603       -0.2248228200
 N         -2.7763656101        0.2012419810        1.1890252801
 S         -2.9920665503       -0.5538058990       -0.3070253399
 O         -1.9854979206       -1.5744462493       -0.4574395399
 O         -3.0842203801        0.4430441610       -1.3485819999
 C         -4.5856008505       -1.3131940186       -0.0499230298
 C         -5.7237254203       -0.6426908183       -0.4572426098
 C         -6.9620060605       -1.2214632379       -0.2275244398
 C         -7.0413444908       -2.4531339479        0.4048750303
 C         -5.8905494210       -3.1148544482        0.8069203303
 C         -4.6492176108       -2.5419800385        0.5793457802
 H         -3.7272487910       -3.0216314588        0.8644083302
 H         -5.9554445312       -4.0739047381        1.2949386303
 H         -8.0058321209       -2.9018442976        0.5824389703
 H         -7.8577090704       -0.7110202877       -0.5427024798
 H         -5.6118161101        0.3073583217       -0.9545709199
 H         -3.6562153000        0.3895523413        1.6498917801
 H         -2.9647003194        2.3080317411        2.7974707200
 H         -1.3135993989        4.1326834907        2.9685679999
 H          0.6889257311        4.1316889100        1.5317630198
 H          2.1433020507        2.9649809596        0.1168778298
 C          1.0755051906        2.9387033198       -1.7220626702
 C         -0.2892395794        2.9329936301       -2.3353715501
 C          0.2910818310        4.2141222600       -1.8204957002
 H          0.6086704112        4.9587817399       -2.5345258202
 H         -0.1242889189        4.6186143502       -0.9100899402
 H         -0.3531132095        2.7759695501       -3.4014755501
 H         -1.0964001695        2.4638111204       -1.7927007401
 H          1.9054940506        2.8231000595       -2.4121061602
