  62
        -98.93760754
 C         -2.3151586510       -1.3238598257       -0.0928259452
 C         -3.3182958703       -0.8544266850        0.7939767057
 C         -4.1896884373        0.2134346840        0.2893078113
 C         -4.0071514400        0.6840606759       -0.9572502722
 C         -4.8282519293        1.7380110544       -1.6516988689
 C         -4.7592378327        3.1561722008       -1.0527621823
 C         -5.8755126971        3.4742563521       -0.0501449409
 H         -6.2105094569        4.5005456747       -0.2134511232
 H         -6.7294639875        2.8289901411       -0.2596733423
 C         -5.4979662590        3.3586467067        1.4297396711
 H         -4.9216527664        4.2400208057        1.7202791734
 H         -6.4223314225        3.3637623270        2.0113128812
 C         -4.6767447977        2.1283635454        1.8165200541
 H         -4.6517150064        2.0643861964        2.9061060932
 H         -3.6413280788        2.2607454214        1.4924265896
 C         -5.1963632793        0.7983399482        1.2366664397
 H         -6.1536273919        0.9429043207        0.7384073642
 H         -5.3301299706        0.0698755671        2.0386717457
 H         -4.8412499804        3.8551202491       -1.8867708383
 H         -3.7804871464        3.3112898393       -0.5987418202
 H         -4.4561677941        1.7665269716       -2.6779301272
 H         -5.8690821206        1.4078663448       -1.6825849254
 O         -3.0361134176        0.2038457735       -1.7798930807
 C         -2.1573124007       -0.7884142484       -1.3709039305
 O         -1.3165621843       -1.0961857423       -2.2395924460
 O         -3.4839949641       -1.3167983674        1.9536653731
 C         -1.3785708483       -2.4051262557        0.4241344098
 C         -0.0485614367       -1.7680495767        0.7452986125
 C          0.2060287932       -1.3057200450        2.0328419962
 C          1.3903307254       -0.6553140490        2.3276540233
 C          2.3401052744       -0.4422370434        1.3438462317
 C          2.0870464080       -0.8839335050        0.0523830662
 C          0.9090466344       -1.5584533720       -0.2360740093
 H          0.7147388211       -1.8777878399       -1.2481703849
 N          3.0354072403       -0.6477854018       -0.9610499251
 S          3.5596235194        0.9373822922       -1.1576313655
 O          2.5658754159        1.8888699593       -0.7146742046
 O          3.9760267685        1.0350022087       -2.5398486611
 C          5.0031235893        1.0310358028       -0.1173449968
 C          5.0963960262        2.0136754303        0.8486129153
 C          6.2344201212        2.0713740023        1.6383967126
 C          7.2536063011        1.1508618260        1.4486456313
 C          7.1454254483        0.1712531726        0.4726276657
 C          6.0114070292        0.1091539828       -0.3211945310
 H          5.8889118941       -0.6324077089       -1.0927319820
 H          7.9399528728       -0.5429393232        0.3281226738
 H          8.1374368901        1.1974194688        2.0650342828
 H          6.3199659217        2.8325085187        2.3972495276
 H          4.2757570717        2.7039411286        0.9637571967
 H          2.7562163969       -1.0295826544       -1.8542756717
 H          3.2603724643        0.0744372250        1.5626962586
 H          1.5749282914       -0.3059187652        3.3321014468
 H         -0.5458676003       -1.4456461627        2.7964680632
 H         -1.8267403370       -2.7441511358        1.3675167173
 C         -1.2675061959       -3.5908659918       -0.5111449440
 C         -0.6885816375       -4.8721531267        0.0074452369
 C         -2.1535672361       -4.7791450085       -0.2930143885
 H         -2.5385918088       -5.2984013606       -1.1578469778
 H         -2.8444360707       -4.7420685523        0.5364376317
 H         -0.0646630690       -5.4588301824       -0.6490994473
 H         -0.3844875266       -4.8964511415        1.0428749906
 H         -1.0558277851       -3.3179890248       -1.5370247098
