  62
        -98.93876745
 C         -0.3838629536       -1.5602040459       -0.0074144548
 C         -1.3231243551       -1.1714064440        0.9731072104
 C         -2.5172952074       -0.4495017572        0.4951008506
 C         -2.6017965882       -0.1175652823       -0.8056405835
 C         -3.7396499320        0.5249004750       -1.5616841580
 C         -4.5519366959        1.6309791690       -0.8737631461
 C         -5.9375794850        1.1822793014       -0.4026490257
 H         -6.5938767082        2.0549123799       -0.3709188419
 H         -6.3517076504        0.4909033347       -1.1394547419
 C         -5.9775835802        0.5281414568        0.9768000093
 H         -5.7788655913        1.2808118637        1.7428387223
 H         -6.9932480865        0.1597949568        1.1396019613
 C         -4.9995249394       -0.6314034577        1.1687157903
 H         -4.9725860161       -1.2542837178        0.2743810487
 H         -5.3718056685       -1.2577314929        1.9821801283
 C         -3.5745396821       -0.1803577351        1.5301356273
 H         -3.5722440423        0.8804131897        1.7909672342
 H         -3.2345261840       -0.7135894305        2.4231428722
 H         -3.9899239665        2.0470629463       -0.0414470545
 H         -4.6971205588        2.4300234389       -1.6028075326
 H         -3.2801572645        0.9152991253       -2.4725410372
 H         -4.4134627654       -0.2762749718       -1.8803062741
 O         -1.6033968252       -0.4022158308       -1.6912334321
 C         -0.5039865818       -1.1651354828       -1.3385390568
 O          0.2755880941       -1.4113374825       -2.2774115046
 O         -1.1907308990       -1.4456343534        2.1979108406
 C          0.7641031571       -2.4699889080        0.3869419031
 C          2.0948741549       -1.9281822789       -0.0688555915
 C          3.0844965327       -2.7260098181       -0.6293698128
 C          4.2934328896       -2.1740224158       -1.0150216531
 C          4.5423075887       -0.8252206132       -0.8475243916
 C          3.5602000370       -0.0181242158       -0.2822693645
 C          2.3533765284       -0.5750577298        0.1079367934
 H          1.5957622934        0.0493686029        0.5586509458
 N          3.7708452817        1.3569088109       -0.1403078712
 S          2.8914026764        2.3036198813        0.9014834372
 O          3.5839407706        3.5752588100        0.8909484967
 O          2.7403074015        1.6880685903        2.2000092036
 C          1.3077151748        2.5049553056        0.1171597221
 C          0.1746141508        2.5407818378        0.9043793918
 C         -1.0512754586        2.7703440908        0.3030198843
 C         -1.1249803449        2.9532092736       -1.0684513079
 C          0.0205858516        2.9003918318       -1.8464930354
 C          1.2516855216        2.6806225418       -1.2506683197
 H          2.1609879329        2.6367124120       -1.8268667938
 H         -0.0417198952        3.0290558460       -2.9151281326
 H         -2.0808444722        3.1356946782       -1.5321464070
 H         -1.9407299369        2.8065230384        0.9112715557
 H          0.2717907357        2.3777254479        1.9665869032
 H          4.6998452762        1.6975405409       -0.3317820160
 H          5.4826548429       -0.3939250634       -1.1544899441
 H          5.0527747875       -2.8040026536       -1.4528697989
 H          2.9098366024       -3.7800445601       -0.7687814217
 H          0.7628941816       -2.4880454435        1.4876867759
 C          0.4834401392       -3.8710661996       -0.1222189925
 C          0.9604226609       -5.0707746419        0.6392082066
 C         -0.4977714315       -4.7271764235        0.6189196383
 H         -1.1697285925       -5.3529308284        0.0508344411
 H         -0.9399177268       -4.3103292896        1.5120293569
 H          1.2881692633       -5.9374411138        0.0849390403
 H          1.5080083795       -4.8975290837        1.5533218479
 H          0.4717060076       -3.9215915050       -1.2058284016
