  62
        -98.94026720
 C          1.2569234068        1.5295523037        0.3082599896
 C          1.9501924794        0.6214569397        1.1495678561
 C          3.0791558041       -0.0917505917        0.5416356257
 C          3.3578518949        0.0921097160       -0.7613363331
 C          4.5024259878       -0.5237420522       -1.5197065115
 C          4.2349663981       -1.9499584626       -2.0186152310
 C          4.2443927731       -3.0299599361       -0.9364260345
 H          5.1581838551       -2.9450076978       -0.3474387551
 H          4.2757744682       -3.9938217834       -1.4481546207
 C          3.0233971720       -3.0063692432       -0.0067329887
 H          2.6531025718       -4.0245807282        0.1242327765
 H          2.2208466947       -2.4282698970       -0.4705611117
 C          3.2933312321       -2.4463758406        1.3893568424
 H          3.9816900178       -3.1054928955        1.9231463152
 H          2.3492899747       -2.4257650439        1.9386756474
 C          3.8729377932       -1.0271470276        1.4034247405
 H          4.9147261494       -1.0427685576        1.0825098565
 H          3.8291230193       -0.6502567629        2.4285568370
 H          5.0129347488       -2.1892811006       -2.7473311531
 H          3.2752768802       -1.9634801529       -2.5400205684
 H          5.3976037087       -0.5173324381       -0.8965404846
 H          4.6787986639        0.1171248987       -2.3863263813
 O          2.6174810172        0.9080925125       -1.5556749382
 C          1.5566985792        1.6521528889       -1.0495042073
 O          0.9902335192        2.3565181862       -1.9043153143
 O          1.6499228675        0.4283565561        2.3578635109
 C          0.1423187889        2.3502901079        0.9309182981
 C         -1.0819280328        2.3646853866        0.0515804653
 C         -1.5358439839        3.5040862637       -0.6001210583
 C         -2.6668632965        3.4520057550       -1.3942197511
 C         -3.3795596355        2.2759156831       -1.5333613798
 C         -2.9356868922        1.1292383554       -0.8845339610
 C         -1.7883177572        1.1785325679       -0.1092756604
 H         -1.4409229531        0.2824527572        0.3860644756
 N         -3.6361632790       -0.0801657974       -1.0122164259
 S         -3.8402126168       -1.0784453868        0.3146642079
 O         -5.0601380881       -1.8067463841        0.0351446420
 O         -3.8120746310       -0.3353613732        1.5520380958
 C         -2.4787845557       -2.2203052458        0.2321498226
 C         -2.3303485872       -2.9657642939       -0.9210697413
 C         -1.3125491434       -3.9027751757       -0.9864913432
 C         -0.4696417300       -4.0828504932        0.0998539915
 C         -0.6287792384       -3.3241731891        1.2485899817
 C         -1.6424861734       -2.3814675402        1.3180189310
 H         -1.7965585273       -1.7698745453        2.1935637151
 H          0.0296050142       -3.4611141341        2.0917139678
 H          0.3143605481       -4.8216728210        0.0527916652
 H         -1.1813971943       -4.4928184378       -1.8792319040
 H         -3.0154291125       -2.8063073859       -1.7369578699
 H         -4.4787009051       -0.0210574033       -1.5654935741
 H         -4.2693236919        2.2392404981       -2.1438329807
 H         -3.0028094476        4.3416233266       -1.9052549818
 H         -0.9878730890        4.4269780298       -0.5069443093
 H         -0.1174799155        1.8063374072        1.8548957294
 C          0.5768874093        3.7451958001        1.3599834285
 C          1.9722929427        4.0054648298        1.8406785752
 C          1.5069956809        4.5881119761        0.5417328178
 H          1.3256371380        5.6519693677        0.4938379380
 H          1.8860446334        4.1687952962       -0.3772838746
 H          2.1092686064        4.6662994319        2.6833993719
 H          2.6733112702        3.1842046531        1.8115365411
 H         -0.2165243181        4.2673619739        1.8865950622
