  62
        -98.94430564
 C         -2.6181108788       -1.1126570395        0.2034022320
 C         -2.7357017555       -0.3175730962       -0.9626049592
 C         -3.5814205837        0.8760162263       -0.8339430281
 C         -4.1918298015        1.1428811635        0.3350314462
 C         -5.1065730627        2.3055027621        0.6112961317
 C         -4.3758087791        3.6030979139        0.9831564154
 C         -3.6511604823        4.2958129595       -0.1717270717
 H         -4.3413814685        4.4262667228       -1.0055856986
 H         -3.3700457435        5.2912575118        0.1777039913
 C         -2.3889912068        3.5671482206       -0.6546211719
 H         -1.5747255285        4.2859000637       -0.7709568367
 H         -2.0724515174        2.8468906250        0.1037765458
 C         -2.5478317153        2.8404616771       -1.9902923054
 H         -1.6095947954        2.3263611353       -2.2146026693
 H         -2.7323853747        3.5685695254       -2.7830450698
 C         -3.6742640555        1.7989454330       -2.0112614719
 H         -4.6450974920        2.2933114475       -2.0337363523
 H         -3.5653890934        1.1950435715       -2.9152444351
 H         -5.1219869061        4.2937932762        1.3826320832
 H         -3.6635024205        3.3862064695        1.7829186132
 H         -5.7453850535        2.4817804351       -0.2544615689
 H         -5.7358350009        2.0118955005        1.4543000099
 O         -4.0555206009        0.3489426291        1.4317415332
 C         -3.2510693629       -0.7796871413        1.3996639067
 O         -3.1800758383       -1.3917362569        2.4862106095
 H         -0.3240321680       -0.2960653623        1.0615783387
 C          0.2540597611       -0.9000092438        0.3711976496
 C         -0.3367656074       -2.0185486107       -0.2039924114
 C          0.4235888981       -2.7933333496       -1.0700582239
 C          1.7294523142       -2.4405357802       -1.3643282600
 C          2.3052546603       -1.3154201725       -0.8045506329
 C          1.5591756755       -0.5402865416        0.0737978373
 N          2.1368208852        0.6094788174        0.6447554294
 S          3.5893268584        0.4179513101        1.4696153880
 O          3.7046961171       -0.9081621176        2.0316440130
 O          3.6409377111        1.5197556264        2.4059227450
 C          4.8305344501        0.6608162800        0.2168724751
 C          5.7707057920       -0.3228111729       -0.0199430802
 C          6.7325819649       -0.1088973210       -0.9950624194
 C          6.7371074598        1.0782335563       -1.7113415694
 C          5.7872191351        2.0570964152       -1.4592753640
 C          4.8236612539        1.8502541736       -0.4851300094
 H          4.0704699917        2.5856713303       -0.2561406964
 H          5.7939204740        2.9789594997       -2.0182561584
 H          7.4854882939        1.2420107649       -2.4705609351
 H          7.4719785932       -0.8683416199       -1.1922789677
 H          5.7237161129       -1.2319037602        0.5580554121
 H          1.4910537405        1.1485086111        1.2034855060
 H          3.3185488811       -1.0326206909       -1.0383160718
 H          2.3057216156       -3.0491750991       -2.0442066322
 H         -0.0077399582       -3.6733370626       -1.5179133786
 C         -1.7572168295       -2.3614898757        0.1781978919
 H         -1.7445155129       -2.7450031724        1.2098185939
 C         -2.3872759750       -3.4055005652       -0.7213206738
 C         -2.2132522904       -4.8645604889       -0.4282999021
 C         -3.5394812687       -4.2067218770       -0.1969645869
 H         -4.3555242929       -4.4362324598       -0.8654900850
 H         -3.8494793880       -4.0189970294        0.8211860435
 H         -2.1220640765       -5.5501074482       -1.2573020827
 H         -1.6257723276       -5.1352047733        0.4362020699
 H         -2.4275781929       -3.0894686980       -1.7573092661
 O         -2.1679997627       -0.5878583498       -2.0515924355
