  62
        -98.93538136
 C          2.2964986512        1.1277867010        0.4045611547
 C          2.5289020035        0.0641006495       -0.4996767487
 C          3.5409958276       -0.9220582960       -0.0896265582
 C          4.1592162907       -0.7996501119        1.0978309711
 C          5.1639950245       -1.7480423857        1.6962761630
 C          6.5109508439       -1.8707977505        0.9579732001
 C          6.5769374876       -3.0244998611       -0.0504039067
 H          7.5625827154       -3.4900045099        0.0132123527
 H          5.8520438357       -3.7861558446        0.2395163192
 C          6.3580343773       -2.6424660527       -1.5175328064
 H          7.2728227839       -2.1915978332       -1.9090298020
 H          6.1787661801       -3.5616893155       -2.0794955718
 C          5.2144332433       -1.6650392738       -1.7893819660
 H          5.0428776675       -1.6319609864       -2.8672681088
 H          5.5153946909       -0.6568870607       -1.4946046587
 C          3.8943138753       -2.0031675213       -1.0697820843
 H          3.0776744778       -2.0507484970       -1.7929175056
 H          3.9650749173       -2.9670544280       -0.5680743034
 H          6.7470210699       -0.9246961124        0.4716019086
 H          7.2735360169       -2.0413699775        1.7195151098
 H          5.3448208905       -1.3773790747        2.7072855402
 H          4.7060824501       -2.7362685035        1.7801571454
 O          3.8957163399        0.2287245514        1.9485570968
 C          2.9839066915        1.2141760286        1.6207946069
 O          2.8703170307        2.1082276886        2.4827485874
 H         -0.1452263333        0.3178346183       -1.0756578654
 C         -0.7100110856        0.8097259428       -0.2975045937
 C         -0.1106540959        1.8218894357        0.4382081508
 C         -0.8473674823        2.4387263093        1.4425475785
 C         -2.1486852981        2.0464530286        1.7026886505
 C         -2.7394128403        1.0304841555        0.9727612049
 C         -2.0117850989        0.4075160059       -0.0327668419
 N         -2.5850609643       -0.6466769164       -0.7623583472
 S         -4.1349861643       -0.4675142433       -1.3751301319
 O         -4.2122603210       -1.3873323306       -2.4888440606
 O         -4.4370650232        0.9156655112       -1.6623248200
 C         -5.1824659257       -1.0601751125       -0.0622167262
 C         -6.1981356580       -0.2607419363        0.4243474963
 C         -7.0053293304       -0.7468525503        1.4412128359
 C         -6.7846829242       -2.0175606532        1.9497608969
 C         -5.7624753030       -2.8094264114        1.4478213084
 C         -4.9527285091       -2.3296198840        0.4309342764
 H         -4.1507400311       -2.9142166176        0.0118665291
 H         -5.5937998117       -3.7972549370        1.8455337716
 H         -7.4129715347       -2.3935350229        2.7417195433
 H         -7.8008332795       -0.1331143796        1.8322534787
 H         -6.3294816617        0.7227029516        0.0017005189
 H         -1.9625217639       -1.0436500258       -1.4513195157
 H         -3.7516849903        0.7198655021        1.1734120330
 H         -2.7088866355        2.5342283106        2.4857922387
 H         -0.3882610442        3.2224150551        2.0275987862
 C          1.3066542012        2.2534064163        0.1431848076
 H          1.5684765801        3.0452718929        0.8575458797
 C          1.4157043188        2.8228883641       -1.2586517425
 C          0.9169121734        4.2108860682       -1.5189659174
 C          2.3890501683        3.9290930614       -1.5267852002
 H          2.9132632899        3.9364052563       -2.4706572807
 H          2.9808634210        4.2857750981       -0.6960708567
 H          0.5111152985        4.7613744053       -0.6836677691
 H          0.4254096158        4.4135300387       -2.4582626869
 H          1.2782651961        2.0841905412       -2.0371792578
 O          1.9302987059       -0.0881367523       -1.5994865971
