  62
        -98.94648918
 C         -1.5596147004       -1.0897434501        0.0254169117
 C         -2.6170866506       -0.8129492796        0.9291524113
 C         -3.3278245005        0.4526615303        0.7200110404
 C         -2.9272188303        1.2888559497       -0.2546364000
 C         -3.5215120502        2.6357728496       -0.5653297909
 C         -4.7644854500        2.5776589991       -1.4640806212
 C         -6.0309543902        2.0472216895       -0.7910051711
 H         -6.2066513604        2.5959696200        0.1347699485
 H         -6.8649699800        2.2649242091       -1.4612438014
 C         -6.0109560303        0.5395775396       -0.5024842402
 H         -6.9593607202        0.0964672895       -0.8146751702
 H         -5.2263290101        0.0651009693       -1.0963914798
 C         -5.8048962406        0.1784746005        0.9687099500
 H         -5.7692833106       -0.9107606695        1.0523853406
 H         -6.6553638607        0.5327104608        1.5554707296
 C         -4.5178728007        0.7442945708        1.5830950900
 H         -4.6190169107        1.8172731209        1.7441666293
 H         -4.3558648109        0.2584684214        2.5483248903
 H         -4.9628597799        3.5942103489       -1.8115999018
 H         -4.5347682998        1.9665843485       -2.3401004307
 H         -3.7670419304        3.1512273701        0.3635056887
 H         -2.7499731401        3.2064296192       -1.0867250411
 O         -1.8878589901        1.0017564592       -1.0811060196
 C         -1.1950382702       -0.1979611907       -0.9830567588
 O         -0.2993093500       -0.3302465112       -1.8387210785
 H          1.5105305599       -2.0420828509       -1.2596976571
 C          1.6533925096       -1.8157330303       -0.2153929872
 C          0.6074957195       -1.9813340298        0.6786721527
 C          0.8174409792       -1.6595957390        2.0171382625
 C          2.0424066691       -1.1846067788        2.4467855925
 C          3.0764590893       -0.9934481593        1.5462276726
 C          2.8704797996       -1.2997160901        0.2080380027
 N          3.8928796598       -1.0464475706       -0.7251535272
 S          4.6259093898        0.4559454194       -0.6277211979
 O          5.0212031001        0.7815302186       -1.9807763980
 O          5.7009856596        0.3976632800        0.3332528624
 C          3.3777833897        1.5951882198       -0.0459160288
 C          2.1582840498        1.6470727594       -0.6910078591
 C          1.1962573597        2.5319950697       -0.2314384098
 C          1.4662491395        3.3499344603        0.8542934398
 C          2.6988094293        3.2913090907        1.4862470101
 C          3.6633945594        2.4051414304        1.0351460908
 H          4.6307113393        2.3194067706        1.5031764410
 H          2.9080552592        3.9286720511        2.3302559697
 H          0.7105320094        4.0334963905        1.2083517492
 H          0.2363341198        2.5606146394       -0.7230982901
 H          1.9449407800        0.9978404489       -1.5256236188
 H          3.6189445200       -1.2436474012       -1.6772729071
 H          4.0329227692       -0.6044196191        1.8565076126
 H          2.1919820089       -0.9468716982        3.4887986124
 H         -0.0009061010       -1.7719482286        2.7143275124
 C         -0.7733480505       -2.3768011500        0.2200232326
 H         -1.2747287506       -2.9045811795        1.0418682728
 C         -0.7913605902       -3.2582478907       -1.0103579969
 C         -0.3508927402       -4.6861294507       -0.8948393260
 C         -1.7987789402       -4.3630217708       -1.1056131365
 H         -2.2405873900       -4.5751552213       -2.0678036565
 H         -2.4780412704       -4.4937940903       -0.2760734166
 H          0.2031961999       -5.1241073612       -1.7110227156
 H         -0.0455105605       -5.0345439501        0.0801446943
 H         -0.5569764800       -2.7282826613       -1.9255010372
 O         -2.9469863708       -1.5858922890        1.8666723517
