  62
        -98.93507229
 C          1.9488291292        1.3583646809        0.3743449097
 C          2.4375111191        0.6083246304       -0.7218133500
 C          3.6520639192       -0.1954524394       -0.4783912398
 C          4.2099096593       -0.2099542388        0.7457344101
 C          5.4597781694       -0.8904325585        1.2636356103
 C          6.1123642894       -2.0267229088        0.4801652708
 C          5.2729775295       -3.2994784589        0.3744246514
 H          5.7970286395       -3.9996729191       -0.2797683483
 H          5.2065240997       -3.7566387884        1.3650323916
 C          3.8482283894       -3.1109004792       -0.1415862785
 H          3.2789967095       -2.5037876489        0.5657994113
 H          3.3711821395       -4.0944186793       -0.1740405980
 C          3.7307021992       -2.4924184099       -1.5336183188
 H          2.6824744692       -2.5650902601       -1.8373102786
 H          4.3249242692       -3.0707370201       -2.2437387286
 C          4.1396311691       -1.0125880399       -1.6394432495
 H          5.2147261491       -0.9054397199       -1.7619289497
 H          3.6628970890       -0.5962694603       -2.5316464896
 H          6.4069032693       -1.6838748492       -0.5073132094
 H          7.0320474595       -2.2825597185        1.0134222008
 H          6.2003465594       -0.0937604084        1.3962246899
 H          5.2082563196       -1.2467474680        2.2676607205
 O          3.6811713194        0.5050863316        1.7823312199
 C          2.5432179393        1.2782600815        1.6341599596
 O          2.1585551694        1.8275490919        2.6861866794
 O          1.9024021390        0.6020324799       -1.8593758900
 C          0.6979546391        2.2133712007        0.2643419294
 C         -0.3831805509        1.4469978903       -0.4587530401
 C         -1.0261774311        1.9043902698       -1.6005155003
 C         -2.0038221311        1.1360265194       -2.2094111298
 C         -2.3651347909       -0.0944689104       -1.6944232992
 C         -1.7366909508       -0.5559809698       -0.5441454691
 C         -0.7654202408        0.2189246405        0.0693322705
 H         -0.2719660507       -0.1452774790        0.9629447206
 N         -2.1032401906       -1.8010448496       -0.0056527985
 S         -3.7318511606       -2.1702393897        0.0874248219
 O         -3.8467502204       -3.0958459592        1.1929951123
 O         -4.1954725307       -2.6560709303       -1.1883619279
 C         -4.5407661107       -0.6276303696        0.4749143713
 C         -5.4648122308       -0.0937005200       -0.3997572789
 C         -6.0542765409        1.1222032301       -0.0922786294
 C         -5.7078975608        1.7813447906        1.0767521103
 C         -4.7805964706        1.2298245911        1.9478870705
 C         -4.1896768606        0.0138333810        1.6463310509
 H         -3.4688879805       -0.4434430886        2.3055014211
 H         -4.5124298406        1.7432848315        2.8573732602
 H         -6.1626930808        2.7303433207        1.3129135599
 H         -6.7771792110        1.5522895897       -0.7664536995
 H         -5.7025706809       -0.6385004004       -1.2988140686
 H         -1.6197746305       -2.0421738692        0.8462959916
 H         -3.1074787409       -0.7133888206       -2.1716782588
 H         -2.4856932312        1.4977194990       -3.1048040499
 H         -0.7427430512        2.8493123596       -2.0330727107
 H          0.3643899092        2.3581283212        1.3055503594
 C          0.9401192589        3.6027679205       -0.3064024712
 C          2.2747487589        4.2715438406       -0.1710879817
 C          1.7889453688        3.8345063400       -1.5187762914
 H          1.4814637587        4.5948353697       -2.2218931217
 H          2.2467527788        2.9736725798       -1.9790899111
 H          2.2978504289        5.3275859908        0.0527261178
 H          3.0725177090        3.7103821909        0.2940353685
 H          0.0720312189        4.2439826605       -0.1893365014
