  62
        -98.94330282
 C         -2.5877080293       -0.0316524134       -0.0695686274
 C         -2.4591737660       -1.1179914268       -0.9658362446
 C         -2.0570790988       -2.3995200054       -0.3739105932
 C         -1.8148320538       -2.4652085058        0.9480620650
 C         -1.3951448109       -3.7062865808        1.6812952893
 C          0.1308747662       -3.8290098956        1.7770440406
 C          0.8575610130       -3.6456360760        0.4447414115
 H          0.7626755451       -2.6024533671        0.1339995416
 H          1.9190749779       -3.8228144952        0.6349473460
 C          0.3800564516       -4.5735113519       -0.6808837429
 H          1.2559517777       -4.9607232769       -1.2058582150
 H         -0.1478294106       -5.4286902597       -0.2568950870
 C         -0.5049074927       -3.9006239142       -1.7319241054
 H         -0.5688077219       -4.5643490887       -2.5985317330
 H         -0.0332677329       -2.9715067466       -2.0626328181
 C         -1.9401745723       -3.5816978184       -1.2947245861
 H         -2.5115765312       -3.3198023380       -2.1902234717
 H         -2.3937046614       -4.4673562893       -0.8448530334
 H          0.3691086957       -4.8098682259        2.1943181307
 H          0.4981259442       -3.0644410004        2.4661628751
 H         -1.8073918434       -4.5754514010        1.1713902863
 H         -1.8080525175       -3.6591690598        2.6908135051
 O         -1.9184745822       -1.3930456911        1.7742240145
 C         -2.2750085763       -0.1465013554        1.2854412562
 O         -2.2980939469        0.7556434683        2.1452111411
 O         -2.6760147174       -1.0197795554       -2.2056351651
 C         -2.9653073547        1.3354022873       -0.6177817272
 C         -1.7912744731        2.2602956349       -0.4130814918
 C         -1.8631920677        3.4972009035        0.2128558236
 C         -0.7128531802        4.2300957205        0.4559115806
 C          0.5302879641        3.7440234774        0.0923057848
 C          0.6050592867        2.5250483455       -0.5637626819
 C         -0.5456860665        1.8057571552       -0.8282005209
 H         -0.4715114028        0.8433308424       -1.3203864535
 N          1.8858373893        1.9695953706       -0.8725370400
 S          2.2912537100        0.8784449368        0.3655034701
 O          1.4869462862       -0.3200588327        0.2572202992
 O          2.2312500153        1.5917751521        1.6158296080
 C          3.9898123080        0.5065190663       -0.0316154771
 C          4.3323217571       -0.7467439610       -0.4995758580
 C          5.6568371617       -1.0032288835       -0.8195970503
 C          6.6082230880       -0.0059184925       -0.6707827673
 C          6.2476521188        1.2488503140       -0.2015011693
 C          4.9263077881        1.5107625428        0.1220562232
 H          4.5986615936        2.4658704991        0.4971132358
 H          6.9906247891        2.0214641311       -0.0867309691
 H          7.6376630495       -0.2082841584       -0.9209069838
 H          5.9392369917       -1.9783007485       -1.1827530744
 H          3.5583851991       -1.4918664151       -0.5954040540
 H          1.8413293057        1.4264245821       -1.7273279244
 H          1.4361503400        4.2811312370        0.3199436722
 H         -0.7858599122        5.1824456329        0.9587851238
 H         -2.8188150785        3.8773906436        0.5356011087
 H         -3.1108420030        1.1885855919       -1.6984150177
 C         -4.2565563937        1.8362628522       -0.0100305300
 C         -5.1086806379        2.8153412545       -0.7596907454
 C         -5.5586240743        1.3945480389       -0.6056199990
 H         -6.3818588894        1.1809203101        0.0591836680
 H         -5.5144643070        0.7455842874       -1.4680456426
 H         -5.6278475335        3.5794170061       -0.2013914535
 H         -4.7641174164        3.1348447703       -1.7314488029
 H         -4.2023998926        1.9209678787        1.0693641683
