  62
        -98.93539347
 C         -1.1399888182       -1.9646198556       -0.4414985066
 C         -1.3999804749       -0.7211392602       -1.0644282253
 C         -2.6491783181       -0.0321152074       -0.6748059118
 C         -3.4633423286       -0.6041103610        0.2277733591
 C         -4.7512925079       -0.0732925733        0.8026434677
 C         -4.6987597994        1.3780471038        1.3074130437
 C         -5.5326787838        2.3410811002        0.4620429647
 H         -6.4673324266        1.8465898366        0.1890356579
 H         -5.7882536778        3.2104849083        1.0719282224
 C         -4.8390208287        2.8491502065       -0.8000952226
 H         -4.0397014390        3.5379222784       -0.5169568082
 H         -5.5733485490        3.4195715739       -1.3740484826
 C         -4.2425595176        1.7676489105       -1.7041679378
 H         -4.9038019253        0.9040620082       -1.7585987100
 H         -4.1760180889        2.1819947568       -2.7126160261
 C         -2.8301149878        1.3256925429       -1.2977427621
 H         -2.1886521634        1.3071500518       -2.1851810388
 H         -2.3781774339        2.0629197717       -0.6242717508
 H         -3.6625571458        1.7149798020        1.3525229599
 H         -5.0870150779        1.3954125119        2.3272492607
 H         -5.5455454064       -0.1818220949        0.0609830001
 H         -4.9958769312       -0.7465756771        1.6271446379
 O         -3.2014874556       -1.8323459035        0.7627961003
 C         -2.0376233761       -2.5171333896        0.4736395638
 O         -1.9188729686       -3.6038699305        1.0768379010
 H          0.5825203825       -0.2710435074        0.3933657219
 C          1.2475434692       -1.0027635147        0.8189292173
 C          1.1616493233       -2.3279765070        0.4185734423
 C          2.0088969483       -3.2584063078        1.0098716909
 C          2.9234365450       -2.8624810961        1.9700802415
 C          3.0028099721       -1.5403578642        2.3681413559
 C          2.1453988192       -0.6039967939        1.7979899423
 N          2.1575088009        0.7235061043        2.2312075199
 S          1.5656891547        2.0207101559        1.3670492276
 O          1.9415798618        3.1599549147        2.1785547696
 O          0.1555565800        1.8668879559        1.1139220159
 C          2.5165666877        2.0555977073       -0.1406822077
 C          1.9809394899        1.6428018993       -1.3424358293
 C          2.7818070847        1.6844068935       -2.4749872436
 C          4.0916034479        2.1262973183       -2.3885662293
 C          4.6146586944        2.5372306249       -1.1709951769
 C          3.8213013095        2.5030454537       -0.0374265470
 H          4.1808363329        2.8335885259        0.9234524756
 H          5.6332132848        2.8841698226       -1.1041776820
 H          4.7067512768        2.1525071850       -3.2741815870
 H          2.3675530565        1.3641290049       -3.4173721299
 H          0.9639174834        1.2859508718       -1.3960503458
 H          2.8963009133        0.9780733084        2.8674433825
 H          3.7046238776       -1.2357685407        3.1290757544
 H          3.5767453823       -3.5935429432        2.4215386701
 H          1.9313363790       -4.2992008153        0.7320916572
 C          0.1519853446       -2.7432686279       -0.6254955906
 H         -0.1081916302       -3.7956792876       -0.4268339976
 C          0.7091351228       -2.6696912449       -2.0404527909
 C          1.9193271726       -1.8671236415       -2.4005275191
 C          1.9927431333       -3.3625002376       -2.3917147221
 H          2.0514958575       -3.8836550497       -3.3352259610
 H          2.5469207610       -3.8302737415       -1.5930531672
 H          1.9119603497       -1.3502930196       -3.3471284564
 H          2.4189102080       -1.3230421999       -1.6135524746
 H         -0.0806974825       -2.7080367852       -2.7831145402
 O         -0.6386856081       -0.1831312070       -1.9088403814
