  62
        -98.94080530
 C         -2.3268308651       -1.0487131851        0.0244528751
 C         -2.1201591692        0.2045703038       -0.6018207087
 C         -2.8321333735        1.3434027210       -0.0064368071
 C         -3.5809339035        1.1715064315        1.0968499294
 C         -4.3369138136        2.2424094879        1.8351270477
 C         -5.7173070100        2.5557516171        1.2412678509
 C         -5.6986615848        3.3242746545       -0.0806998445
 H         -6.7189662042        3.6653985010       -0.2665733437
 H         -5.0729849387        4.2110565402        0.0252797786
 C         -5.2269667599        2.4996165380       -1.2864129195
 H         -5.9029939161        2.6658413362       -2.1280528591
 H         -5.2756182670        1.4361582704       -1.0415398145
 C         -3.8145656234        2.8314990131       -1.7678529548
 H         -3.5696300899        2.1643979229       -2.5981282880
 H         -3.7855447178        3.8579746861       -2.1399932995
 C         -2.7292759377        2.6710413452       -0.6953374690
 H         -1.7518154748        2.7178899539       -1.1819706546
 H         -2.7937845911        3.4809480954        0.0310864881
 H         -6.2589282793        3.1542771853        1.9772982298
 H         -6.2614154680        1.6175692138        1.1103614152
 H         -4.4751787836        1.8764196762        2.8548542929
 H         -3.7384528518        3.1532968440        1.8724331689
 O         -3.7223806373       -0.0400085818        1.6966062114
 C         -3.1207904682       -1.1690909338        1.1703984172
 O         -3.3647559172       -2.2157287872        1.8040373010
 H          0.3977394710       -0.7475921877       -1.0854519090
 C          0.6859156361       -1.5315737046       -0.4003142123
 C         -0.2670984995       -2.4473365718        0.0223147962
 C          0.1154202608       -3.4334492156        0.9237211830
 C          1.4182750745       -3.4984883630        1.3868170535
 C          2.3644698976       -2.5811307008        0.9653907595
 C          1.9877718616       -1.5860542771        0.0737522457
 N          2.9414475993       -0.6286951970       -0.3525161676
 S          3.4460808138        0.4707175075        0.8299692432
 O          3.8155082580       -0.2592624840        2.0154647296
 O          2.4515592774        1.5105126734        1.0017285891
 C          4.9021164270        1.1434950704        0.0537211591
 C          6.0665489043        0.4008058707        0.0867666748
 C          7.1967676347        0.8991245163       -0.5408107508
 C          7.1434249362        2.1241833524       -1.1892345102
 C          5.9672506072        2.8579056660       -1.2139441976
 C          4.8328799501        2.3641828066       -0.5885034132
 H          3.8990355809        2.9033885430       -0.5762220947
 H          5.9285010744        3.8107313002       -1.7170884096
 H          8.0244096424        2.5108230636       -1.6767774787
 H          8.1137260453        0.3325122729       -0.5225154437
 H          6.0630414073       -0.5414475864        0.6089141979
 H          2.5722450133       -0.0829549009       -1.1223204681
 H          3.3752093514       -2.6091121155        1.3367869213
 H          1.6994493278       -4.2704820652        2.0871438041
 H         -0.6226637170       -4.1394205139        1.2766441470
 C         -1.6946741388       -2.3461189010       -0.4603610561
 H         -2.2665952823       -3.1508703255        0.0206720296
 C         -1.7826575435       -2.5283783795       -1.9631542812
 C         -1.6608564308       -3.9078396683       -2.5340147043
 C         -2.9837577430       -3.2036780987       -2.5500842938
 H         -3.3676766137       -2.8428758162       -3.4924643043
 H         -3.7503859439       -3.5415169451       -1.8676501755
 H         -1.5309220459       -4.7254915785       -1.8412482824
 H         -1.1338465802       -4.0336271985       -3.4671879485
 H         -1.3507479348       -1.7099654092       -2.5232717713
 O         -1.3838140681        0.3949233738       -1.6076317301
