  62
        -98.94286540
 C         -1.6929881550       -1.1703446441       -0.3823656137
 C         -2.8540358486       -1.3511577581        0.4148144919
 C         -4.0516871395       -0.6140951462        0.0016827844
 C         -4.0076415866        0.1614196431       -1.0962926357
 C         -5.1509134481        0.9562694314       -1.6666892354
 C         -5.3474818409        2.3280924697       -1.0072565183
 C         -5.9278476631        2.2923482729        0.4071590947
 H         -6.2166360645        3.3143912886        0.6603719377
 H         -6.8349905124        1.6872685177        0.4106671602
 C         -4.9565439559        1.7744551470        1.4772820486
 H         -3.9353692201        1.8069110783        1.0894254357
 H         -4.9877346110        2.4346080754        2.3470554088
 C         -5.2536089688        0.3587148183        1.9720649485
 H         -6.2181558441        0.3448827068        2.4843251623
 H         -4.4827576239        0.0811412435        2.6954132761
 C         -5.2717772615       -0.7058707266        0.8674345318
 H         -5.2701655570       -1.6909467159        1.3402367408
 H         -6.1742758569       -0.6077036702        0.2645371269
 H         -4.3875140854        2.8500495794       -0.9951478623
 H         -6.0280199272        2.9001762196       -1.6422295383
 H         -4.9241732510        1.1117086254       -2.7237384578
 H         -6.0726138924        0.3786287368       -1.5899175855
 O         -2.8845088680        0.2940613888       -1.8480577903
 C         -1.6957583502       -0.3407496484       -1.5042215871
 O         -0.7588877211       -0.0862344621       -2.2857833172
 H          0.8162480326        0.4418354163       -0.5248365193
 C          0.9620766926        0.1375752151        0.5006160812
 C          0.3894836221       -1.0383311278        0.9689933346
 C          0.5688805732       -1.3865060592        2.3034025434
 C          1.2974012861       -0.5753169560        3.1537982824
 C          1.8709079702        0.5913918047        2.6838889603
 C          1.6980204844        0.9513565962        1.3515102974
 N          2.2591410859        2.1464028794        0.8674369833
 S          3.1647222246        2.1223172454       -0.5405254951
 O          3.9603330873        3.3300929140       -0.4694723174
 O          2.3135008577        1.9900845857       -1.6927090045
 C          4.2160552541        0.6943682641       -0.3555847935
 C          3.8570464681       -0.5033245911       -0.9388451124
 C          4.6543511892       -1.6159069595       -0.7197405826
 C          5.7851225979       -1.5134771809        0.0751927104
 C          6.1338675587       -0.3010709225        0.6508658915
 C          5.3407957832        0.8142113990        0.4378385660
 H          5.5806996107        1.7786463750        0.8554094592
 H          7.0171343244       -0.2229345795        1.2639654828
 H          6.3992612873       -2.3839973773        0.2432889605
 H          4.3871891640       -2.5585484650       -1.1693731005
 H          2.9712649073       -0.5421923166       -1.5522864487
 H          2.7402664767        2.6847627640        1.5742651999
 H          2.4380943051        1.2306124658        3.3434235040
 H          1.4217996073       -0.8543084188        4.1888100286
 H          0.1094890305       -2.2896292131        2.6768350512
 C         -0.4470302045       -1.9157778407        0.0670568549
 H         -0.8220715894       -2.7488203506        0.6778270786
 C          0.3692225337       -2.4942334956       -1.0698791758
 C          1.2337601264       -3.6896640581       -0.8098940043
 C         -0.0149689314       -3.8315448540       -1.6261405431
 H          0.0740337147       -3.9900333938       -2.6904222886
 H         -0.8638104955       -4.3309412058       -1.1819556724
 H          1.2367093911       -4.0996376825        0.1884245582
 H          2.1825871471       -3.7571314787       -1.3183569190
 H          0.7242216910       -1.7509647540       -1.7714484680
 O         -2.8879489479       -2.1076312069        1.4217448894
