  62
        -98.93880152
 C         -1.8501133581       -0.7021375019        0.2829950461
 C         -2.1821909612        0.5842806273       -0.2162440589
 C         -3.5598089989        0.7705368743       -0.6877712298
 C         -4.4116007158       -0.2696334829       -0.6444934267
 C         -5.8572180554       -0.2131986886       -1.0438403589
 C         -6.7516919627        0.1379449404        0.1532488684
 C         -6.2708235298        1.3518251441        0.9482988365
 H         -6.9937525698        1.5234275590        1.7488347239
 H         -5.3168303627        1.1113031655        1.4230899471
 C         -6.1135269879        2.6330009008        0.1173934064
 H         -6.6668232409        2.5382715205       -0.8176241179
 H         -6.5531439771        3.4653689522        0.6710231598
 C         -4.6644071421        3.0165244377       -0.1882270044
 H         -4.0835514488        3.0204690849        0.7374703698
 H         -4.6588650084        4.0361889627       -0.5824251161
 C         -3.9396988932        2.1284817679       -1.2076277758
 H         -4.5442129730        2.0387472254       -2.1125559922
 H         -2.9990709180        2.6216491876       -1.4692902037
 H         -7.7638969545        0.3183900324       -0.2133345047
 H         -6.7823390672       -0.7220013318        0.8263821009
 H         -5.9814163529        0.5260217031       -1.8328611860
 H         -6.1467304659       -1.1931070922       -1.4271847528
 O         -4.0557149092       -1.4932734234       -0.1826043129
 C         -2.7737163796       -1.7485791257        0.2963991370
 O         -2.6150822891       -2.9193980444        0.6846919813
 H          2.0236112228        0.0346064970        0.2092310703
 C          1.7500046153       -0.7944656925       -0.4241355045
 C          0.4990655493       -1.3771252644       -0.2855618611
 C          0.1501143022       -2.4233153001       -1.1329179658
 C          1.0423974041       -2.8745132251       -2.0887047126
 C          2.3020545283       -2.3124294661       -2.2008330094
 C          2.6607765270       -1.2668152080       -1.3585709843
 N          3.9257555806       -0.6712744834       -1.4417667285
 S          4.7092951149       -0.1820702835       -0.0439070367
 O          6.1109801596       -0.1656776032       -0.4019593933
 O          4.3463721134       -1.0100642319        1.0815181658
 C          4.1549382854        1.4902169978        0.2058641337
 C          3.5809759051        1.8536301865        1.4077493661
 C          3.1609899163        3.1629755998        1.5810646025
 C          3.3243411427        4.0811901454        0.5556020466
 C          3.9077777080        3.7015143992       -0.6438348254
 C          4.3286099960        2.3940041932       -0.8234898067
 H          4.7884849256        2.0615126960       -1.7391214427
 H          4.0321944459        4.4195978140       -1.4383434385
 H          2.9930872968        5.0984228802        0.6928259590
 H          2.7052289247        3.4592336843        2.5123203092
 H          3.4674076188        1.1074014674        2.1789899540
 H          4.5575824449       -1.0977351528       -2.1034199712
 H          3.0021971904       -2.6791818114       -2.9360091969
 H          0.7595135328       -3.6851456296       -2.7434926367
 H         -0.8198030190       -2.8857144102       -1.0278712976
 C         -0.4311829506       -0.8783404319        0.7902095316
 H         -0.1015676868        0.1399870812        1.0531150622
 C         -0.3384764104       -1.7179918247        2.0571097897
 C          0.1829400379       -3.1196783243        2.0859125448
 C          0.9946189758       -2.0106203481        2.6814758781
 H          1.0810258135       -1.9558077957        3.7565347352
 H          1.8865703811       -1.7034340604        2.1536556184
 H         -0.3070423358       -3.8231751274        2.7415542563
 H          0.5197009519       -3.5567904291        1.1591553629
 H         -1.1537968728       -1.5007362165        2.7406649189
 O         -1.3586970608        1.5377810720       -0.2565723865
