  62
        -98.94690612
 C         -2.0433802172       -1.0745253720       -0.5218185555
 C         -1.4864963213        0.0500916025       -1.1766069286
 C         -2.2004982087        1.3232597570       -0.9954428062
 C         -3.3030409110        1.3653220932       -0.2280104490
 C         -4.0895679031        2.6040215808        0.0867149487
 C         -3.5873360961        3.2736533038        1.3730267117
 C         -2.0724302197        3.4775524000        1.4191829264
 H         -1.8434935307        4.0005674677        2.3508549735
 H         -1.5722839678        2.5068802019        1.4721156462
 C         -1.4988089464        4.2690046355        0.2356902560
 H         -2.2949577880        4.8238000549       -0.2633974832
 H         -0.7833192640        4.9990427588        0.6202596478
 C         -0.7517177202        3.4096625684       -0.7859786446
 H         -0.0429970993        2.7661138524       -0.2581866561
 H         -0.1761462813        4.0742053717       -1.4366237512
 C         -1.6345103975        2.5331980793       -1.6842985724
 H         -2.4333829772        3.1380240398       -2.1190325168
 H         -1.0101914856        2.1530579124       -2.4981046467
 H         -4.0874412588        4.2387387982        1.4764107582
 H         -3.8732373475        2.6497541167        2.2232145266
 H         -4.0150627076        3.2976244602       -0.7486067738
 H         -5.1353102041        2.3212017579        0.2206974041
 O         -3.8121711644        0.2675624657        0.3876442937
 C         -3.1920260240       -0.9631879427        0.2678907144
 O         -3.7605994275       -1.8815626915        0.8940143888
 H          0.7850462239       -0.9597244248       -0.1410506492
 C          0.6663821863       -1.7141080805        0.6179689877
 C         -0.4069683025       -2.5922301832        0.5510047370
 C         -0.5432809713       -3.5625057812        1.5360578904
 C          0.3656866303       -3.6387041615        2.5763503959
 C          1.4067453209       -2.7336903856        2.6647002832
 C          1.5530322487       -1.7578698919        1.6830771136
 N          2.5981918747       -0.8285667620        1.7612527484
 S          2.4092399273        0.7801594603        1.3114067222
 O          3.1842386685        1.5174757127        2.2905117528
 O          1.0189107246        1.1437334487        1.1997721299
 C          3.2659248826        0.8643809808       -0.2473269235
 C          4.6477995070        0.8745696152       -0.1960912876
 C          5.3664225785        0.9128072940       -1.3785923684
 C          4.6942743578        0.9402654910       -2.5918316072
 C          3.3093120268        0.9317593948       -2.6260221495
 C          2.5824019138        0.8930125431       -1.4447217601
 H          1.5032728005        0.8730851214       -1.4560401172
 H          2.7806282986        0.9503773185       -3.5657490895
 H          5.2518452824        0.9691750683       -3.5148440218
 H          6.4442068573        0.9207181401       -1.3524515485
 H          5.1281292617        0.8664797176        0.7682586425
 H          3.1563324417       -0.9013358925        2.5992305097
 H          2.1005511402       -2.7735461755        3.4910803120
 H          0.2505482596       -4.3962444355        3.3368797280
 H         -1.3805992650       -4.2436437704        1.4952567350
 C         -1.4280647297       -2.4665498671       -0.5556697048
 H         -2.2499631524       -3.1595501407       -0.3275784229
 C         -0.8344788234       -2.8568567183       -1.8940000657
 C         -0.7030729565       -4.3110847237       -2.2293570249
 C         -1.7186675552       -3.4666876083       -2.9378114974
 H         -1.5482925924       -3.2067051965       -3.9715482875
 H         -2.7611399002       -3.6064410066       -2.6899591326
 H          0.1682732608       -4.6351718118       -2.7771040479
 H         -1.0584163884       -5.0273584147       -1.5039636361
 H         -0.0547290674       -2.1888286723       -2.2329266565
 O         -0.4514394718        0.0205537656       -1.8936159539
