  62
        -98.94608125
 C         -0.9990637610       -1.6227210200        0.6273441897
 C         -1.7835740116       -1.5218363787       -0.5465861398
 C         -2.8937838011       -0.5600525181       -0.4922016385
 C         -3.0836767001        0.1669431811        0.6238853322
 C         -4.1769625695        1.1787002915        0.8092316135
 C         -3.7276120089        2.5863911816        0.3964704744
 C         -3.0336919396        2.6404048623       -0.9640040059
 H         -2.0925473799        2.0881605518       -0.9076627068
 H         -2.7811699592        3.6841262623       -1.1597878452
 C         -3.8760955905        2.0963472337       -2.1262784259
 H         -3.7890934506        2.7814584843       -2.9720485954
 H         -4.9282376804        2.0674478740       -1.8401710754
 C         -3.4519813515        0.7153517138       -2.6291601172
 H         -2.3764618016        0.7090632334       -2.8240601278
 H         -3.9577754921        0.5302070948       -3.5806597271
 C         -3.7796563316       -0.4617837267       -1.7019998579
 H         -3.6172574624       -1.3848180864       -2.2662590487
 H         -4.8309773015       -0.4192369064       -1.4096067273
 H         -3.0320680383        2.9576832707        1.1503159743
 H         -4.6032750686        3.2378890021        0.3871353954
 H         -5.0411420799        0.8746648725        0.2213897538
 H         -4.4556493489        1.1904238609        1.8644348837
 O         -2.2752720496        0.0795505198        1.7118743817
 C         -1.2166972300       -0.8137514607        1.7417237905
 O         -0.5545862895       -0.7922691819        2.8000209801
 H          1.3009427495       -0.2792711710        0.3166142196
 C          1.6726566288       -1.0028975806       -0.3938396612
 C          1.1708284281       -2.2986229204       -0.3648852019
 C          1.6539813271       -3.2200955199       -1.2836581329
 C          2.6110745868       -2.8439642597       -2.2105977031
 C          3.1246289375       -1.5607310400       -2.2200690824
 C          2.6546411285       -0.6324302904       -1.2967036214
 N          3.1553607892        0.6775782593       -1.2720840507
 S          3.4074484504        1.4613053880        0.1874682598
 O          4.4803337007        2.3936541877       -0.0903691700
 O          3.6407842104        0.5248558671        1.2605580090
 C          1.9183939110        2.3967466586        0.4615648513
 C          1.0906926614        2.1070594082        1.5270521315
 C         -0.0352890081        2.8894709986        1.7326470827
 C         -0.3080896680        3.9461426994        0.8784193637
 C          0.5300777216        4.2208806198       -0.1918830865
 C          1.6540509011        3.4408237694       -0.4040985377
 H          2.3404266508        3.6305296497       -1.2124304979
 H          0.3115638817        5.0416334305       -0.8557011258
 H         -1.1763645876        4.5627532098        1.0499569646
 H         -0.6887297478        2.6580608983        2.5596304929
 H          1.3255036713        1.2793673176        2.1798995508
 H          3.9064520989        0.8551477394       -1.9230753709
 H          3.8821326573       -1.2745612298       -2.9339424026
 H          2.9716269761       -3.5655977393       -2.9279827539
 H          1.2785204366       -4.2299292897       -1.2801384335
 C          0.1405263385       -2.6236318906        0.6893163184
 H          0.6180574890       -2.4823265817        1.6707552082
 C         -0.3967845823       -4.0370328803        0.6084160275
 C          0.3641321974       -5.1676662412        1.2306130363
 C         -0.9097514420       -4.6871870410        1.8566850473
 H         -1.7871339124       -5.3128144805        1.7899436073
 H         -0.8483066412       -4.1184140617        2.7734881377
 H          1.2932944478       -4.9309362821        1.7271467760
 H          0.3601066566       -6.1273726308        0.7362854055
 H         -0.9376122929       -4.2264069793       -0.3113959123
 O         -1.5802359625       -2.2091881980       -1.5809654804
