  62
        -98.93689517
 C         -2.4220313657       -1.1527881689        0.1851551930
 C         -2.4738068261        0.0369939415       -0.5829679293
 C         -3.8219251770        0.5144331340       -0.9253760937
 C         -4.9047391203       -0.1723251389       -0.5211799645
 C         -6.3385538838        0.1769530092       -0.8145127062
 C         -6.9388735355        1.2071767081        0.1520218299
 C         -6.4307598510        2.6387079929       -0.0246460096
 H         -6.5323602579        2.9326423194       -1.0697319286
 H         -7.0867730053        3.2855963469        0.5611838115
 C         -4.9826016398        2.8584668709        0.4352903544
 H         -4.6745414375        2.0311625336        1.0788680496
 H         -4.9251329722        3.7687321190        1.0362815702
 C         -3.9705833770        3.0023791754       -0.7015326196
 H         -2.9747790647        3.1094981724       -0.2634869000
 H         -4.1874370620        3.9074900938       -1.2732013072
 C         -3.9340836545        1.8114934574       -1.6680987230
 H         -4.8199730763        1.8128479539       -2.3028078409
 H         -3.0481726475        1.9103998731       -2.3002862048
 H         -8.0203557805        1.2064558326       -0.0021461895
 H         -6.7489523791        0.8767752154        1.1758468487
 H         -6.4246065793        0.5422973527       -1.8381621831
 H         -6.9084072280       -0.7505383285       -0.7265558033
 O         -4.8124438376       -1.3112386210        0.2165135991
 C         -3.5807700828       -1.8071482206        0.6116050828
 O         -3.6485604534       -2.8222802191        1.3335288694
 O         -1.4633276369        0.6771789018       -0.9709535485
 C         -1.1030665452       -1.7510130692        0.6425928443
 C         -0.1837434861       -0.6650627634        1.1448940540
 C         -0.5801600813        0.0856628464        2.2492550012
 C          0.2272115296        1.0882343704        2.7491570430
 C          1.4569932231        1.3509849469        2.1713873265
 C          1.8591587573        0.6115285318        1.0660588029
 C          1.0403105498       -0.3881057985        0.5593508263
 H          1.3694431172       -0.9295662325       -0.3115326180
 N          3.0877701354        0.8727745466        0.4384463516
 S          3.9445002670       -0.4195030876       -0.2249437523
 O          3.4557615182       -0.6843587264       -1.5543985894
 O          3.9392866131       -1.5390429208        0.6909275675
 C          5.5762921668        0.2947337704       -0.3192397366
 C          5.8691225169        1.1382734542       -1.3744571119
 C          7.1244370501        1.7218628726       -1.4368872112
 C          8.0605681842        1.4547412759       -0.4486913521
 C          7.7530358422        0.6045731244        0.6028052644
 C          6.4987833075        0.0184966691        0.6720912806
 H          6.2175676695       -0.6546828113        1.4659410596
 H          8.4840564509        0.3962788012        1.3673272578
 H          9.0370534385        1.9097895724       -0.5003365139
 H          7.3680499038        2.3809972908       -2.2544712505
 H          5.1127341818        1.3088218525       -2.1228958473
 H          3.6858417052        1.4839315912        0.9772337360
 H          2.0919190662        2.1307803736        2.5640165042
 H         -0.0977690182        1.6650582940        3.6022498592
 H         -1.5388487179       -0.1255439508        2.7048912530
 H         -1.3623769464       -2.3922812593        1.5023795698
 C         -0.4414902498       -2.6556901193       -0.3860842606
 C         -1.2566556528       -3.4553855475       -1.3566204656
 C         -0.4103357443       -2.3203467829       -1.8454297070
 H          0.4898792906       -2.5438236213       -2.4001535775
 H         -0.8963060419       -1.4098120625       -2.1585101349
 H         -0.9446146663       -4.4650803941       -1.5772385198
 H         -2.3287782918       -3.3230615270       -1.3366090960
 H          0.4419629442       -3.1444960601        0.0165166642
