  62
        -98.94528398
 C          2.4905173473        1.1730212107       -0.0218262910
 C          3.1772392843        0.3471064979        0.8991194723
 C          3.7717607010       -0.8775210047        0.3484764335
 C          3.6289120031       -1.1450735028       -0.9626466047
 C          4.1196713295       -2.3906495191       -1.6408818085
 C          3.0365565468       -3.4788159854       -1.6445837362
 C          2.3952006755       -3.7174295905       -0.2772397536
 H          1.8300995598       -2.8268848226        0.0111349261
 H          1.6686644262       -4.5248668178       -0.3946251973
 C          3.3889161676       -4.0776707548        0.8365642040
 H          2.9824715141       -4.9142098568        1.4088232579
 H          4.3298040378       -4.4110891297        0.3976273901
 C          3.6661522399       -2.9495490755        1.8320064845
 H          4.2009880927       -3.3738527925        2.6858047543
 H          2.7186585566       -2.5517497163        2.2053686313
 C          4.5051087019       -1.7803572945        1.3004332216
 H          4.7811567575       -1.1552335787        2.1546550351
 H          5.4196795340       -2.1621246519        0.8430470605
 H          2.2484722605       -3.1828502201       -2.3414168735
 H          3.4801464203       -4.4080146657       -2.0066869755
 H          4.3758134202       -2.1431552262       -2.6722746539
 H          5.0105957019       -2.7511035307       -1.1305324772
 O          2.9655243861       -0.3266822099       -1.8181301264
 C          2.3596204400        0.8387338141       -1.3702472515
 O          1.7574316822        1.4754754750       -2.2542490314
 O          3.2778400310        0.6153836715        2.1276991504
 C          1.8025410722        2.4273434923        0.4898275982
 C          0.3122413317        2.2662487917        0.3138549758
 C         -0.4938650332        3.1747355459       -0.3573614137
 C         -1.8461555081        2.9234628451       -0.5192089494
 C         -2.4224504355        1.7727880913       -0.0140111249
 C         -1.6263651013        0.8618013507        0.6686726013
 C         -0.2756147328        1.1179121978        0.8323082686
 H          0.3451408564        0.4028086083        1.3595991256
 N         -2.2051579144       -0.3148464488        1.1888027552
 S         -2.9142030434       -1.3484288978        0.0641093170
 O         -2.8700421167       -2.6599832799        0.6743245882
 O         -2.2942472753       -1.2225887396       -1.2353080439
 C         -4.6040566342       -0.7933692531       -0.0007234781
 C         -5.1403475022       -0.3536884670       -1.1948708116
 C         -6.4579663483        0.0771007357       -1.2182998922
 C         -7.2105031688        0.0604162909       -0.0538576762
 C         -6.6571745814       -0.3868853159        1.1368975779
 C         -5.3413420112       -0.8200575036        1.1670790206
 H         -4.8732303923       -1.1793982459        2.0681982351
 H         -7.2457935226       -0.3986749283        2.0399659708
 H         -8.2345638328        0.3982200883       -0.0747467984
 H         -6.8896487044        0.4248078543       -2.1430584187
 H         -4.5135323053       -0.3524273675       -2.0725036878
 H         -1.5685324040       -0.8410748054        1.7713868640
 H         -3.4730704362        1.5713860533       -0.1455682952
 H         -2.4594910964        3.6341721001       -1.0516675093
 H         -0.0616095512        4.0722075787       -0.7677713833
 H          2.0187992916        2.4591173252        1.5680444888
 C          2.3705631151        3.6701896442       -0.1588914493
 C          2.2843098703        4.9893357116        0.5473084637
 C          3.6040389708        4.2910509798        0.4226716877
 H          4.3432340830        4.6964632088       -0.2516772837
 H          4.0250665235        3.8279084512        1.3031886283
 H          2.1191869780        5.8791214436       -0.0409455023
 H          1.8097991557        5.0061564276        1.5166784148
 H          2.2790351274        3.6570640385       -1.2387973367
