  62
        -98.94515112
 C          2.2668208412        0.7356086900       -0.0204460112
 C          3.2635072837        0.6711969483        0.9861509289
 C          4.1422777587       -0.5042837001        0.9533643131
 C          3.9329643505       -1.4541597882        0.0236989951
 C          4.7799354052       -2.6800563751       -0.1550070785
 C          5.9205592781       -2.4270005501       -1.1510167430
 C          6.7139776290       -1.1506365137       -0.8708276497
 H          7.5093360439       -1.0923128242       -1.6169810790
 H          6.0640747535       -0.2863567908       -1.0256603835
 C          7.3254391758       -1.0788384413        0.5353615813
 H          7.3568763221       -2.0755315800        0.9768262741
 H          8.3563838020       -0.7288233273        0.4511238518
 C          6.6076321223       -0.1238908162        1.4908922324
 H          6.4911982167        0.8523790391        1.0137602491
 H          7.2404868496        0.0153163327        2.3713150899
 C          5.2311859803       -0.5854409108        1.9861652958
 H          5.3050726622       -1.5975277448        2.3891258174
 H          4.9266104869        0.0851806744        2.7948784100
 H          6.5920864626       -3.2872780823       -1.1317335116
 H          5.4934324355       -2.3518117518       -2.1537766799
 H          5.1853933715       -2.9788139961        0.8097382189
 H          4.1462558829       -3.4824480223       -0.5368236992
 O          2.9419180568       -1.3789634876       -0.9001958672
 C          2.0906841975       -0.2842388073       -0.9556100257
 O          1.2474060393       -0.3474013597       -1.8716552878
 O          3.4118504311        1.5585741100        1.8677776393
 C          1.3409042856        1.9415834267       -0.0286661464
 C         -0.0365658139        1.4812575067        0.3782698442
 C         -0.3251700625        1.3146470500        1.7302074350
 C         -1.5549648565        0.8312306120        2.1344438283
 C         -2.5196316416        0.4938523024        1.2004207357
 C         -2.2342013140        0.6381047400       -0.1499525879
 C         -1.0061973533        1.1466104401       -0.5534824344
 H         -0.7941955879        1.2416150143       -1.6065328992
 N         -3.2010931143        0.2880605115       -1.1078712543
 S         -4.0131702190       -1.1694688339       -0.9271426498
 O         -3.2193318620       -2.1484372646       -0.2207898951
 O         -4.4453104607       -1.5297135000       -2.2602060175
 C         -5.4441923276       -0.7285034316        0.0393914949
 C         -5.7474766417       -1.4357780010        1.1862012903
 C         -6.8709024561       -1.0798470883        1.9164967728
 C         -7.6676525664       -0.0290784437        1.4887155504
 C         -7.3512385983        0.6694561077        0.3330007875
 C         -6.2305399857        0.3178039047       -0.4020577781
 H         -5.9516573772        0.8328597406       -1.3059698378
 H         -7.9729999898        1.4862194910        0.0035258206
 H         -8.5402147034        0.2469178130        2.0594560786
 H         -7.1182968225       -1.6224969678        2.8147335144
 H         -5.0951847071       -2.2415427533        1.4838788655
 H         -2.8787019987        0.3982202470       -2.0588803867
 H         -3.4762746081        0.1042385592        1.5076449739
 H         -1.7660880725        0.7117230966        3.1862606006
 H          0.4357679288        1.5569141349        2.4589547866
 H          1.7242584738        2.6048346845        0.7583256646
 C          1.3773818156        2.6815098805       -1.3491901324
 C          0.8073396255        4.0653021344       -1.4285676986
 C          2.2897147167        3.8599403938       -1.5024727601
 H          2.7855119910        4.0064626600       -2.4504532849
 H          2.8886503846        4.1421513632       -0.6490679030
 H          0.2830494212        4.3568386447       -2.3257170537
 H          0.3981601539        4.4856103010       -0.5225095184
 H          1.2615163255        2.0336590985       -2.2096649574
