  62
        -98.93891305
 C         -1.0169716212       -1.4967385594        0.2174875299
 C         -1.4021704613       -0.2472400497        0.7547428704
 C         -2.5092369111        0.4600162507        0.0820646405
 C         -3.0493855808       -0.0877554088       -1.0224953199
 C         -4.1879376206        0.4261999216       -1.8644477799
 C         -5.5589839708        0.2228975913       -1.2027200404
 C         -5.6243885111        0.6256015006        0.2675858098
 H         -4.9010380513        0.0351272603        0.8323878397
 H         -6.6182867612        0.3625930805        0.6393630794
 C         -5.3980230812        2.1100844605        0.5449077506
 H         -5.6008979714        2.2737565200        1.6063467106
 H         -6.1230614310        2.6956764508       -0.0244457993
 C         -3.9931106311        2.6408706106        0.2456319112
 H         -3.8976872312        3.6057739304        0.7513830016
 H         -3.8596323908        2.8331421111       -0.8153840487
 C         -2.8609512812        1.7599804903        0.7630211310
 H         -3.0470345915        1.5145914198        1.8149410409
 H         -1.9320744112        2.3409177003        0.7634801615
 H         -5.8155858208       -0.8371877586       -1.2713606709
 H         -6.3014892406        0.7862692716       -1.7706914003
 H         -4.0314736505        1.4722068917       -2.1099135794
 H         -4.1654621104       -0.1417889679       -2.7972028002
 O         -2.6135106107       -1.2764647786       -1.5306336303
 C         -1.6007072109       -2.0089624089       -0.9406064604
 O         -1.3245725008       -3.0694364386       -1.5326940909
 H          1.5266093888       -0.0997666195        0.2850438112
 C          1.9168933990       -0.9651289993       -0.2320120891
 C          1.3183618389       -2.2037733494       -0.0296384398
 C          1.8246741790       -3.3082304390       -0.7012141302
 C          2.9014732292       -3.1680239087       -1.5596381999
 C          3.5034726193       -1.9376810486       -1.7473144791
 C          3.0069777892       -0.8261484489       -1.0745118587
 N          3.5841299192        0.4412723412       -1.2470939280
 S          3.7651144589        1.4483631505        0.0778049425
 O          4.8294083290        2.3542197807       -0.3045137968
 O          3.9865947286        0.6965380100        1.2909538822
 C          2.2536079389        2.3807965805        0.1765718026
 C          1.7052308792        2.8796028311       -0.9882755073
 C          0.5781900792        3.6806831211       -0.9060921872
 C          0.0283519789        3.9760052605        0.3324893728
 C          0.5877630586        3.4622877699        1.4921715527
 C          1.7112947386        2.6556065200        1.4155066126
 H          2.1699214884        2.2268627495        2.2922215925
 H          0.1511080284        3.6785739795        2.4539420227
 H         -0.8410384211        4.6124438005        0.3937777529
 H          0.1328700494        4.0745611915       -1.8056334271
 H          2.1633551994        2.6340774215       -1.9320612773
 H          4.3998896894        0.4596510414       -1.8420791878
 H          4.3488122995       -1.8331991083       -2.4105859389
 H          3.2820577994       -4.0316710084       -2.0837983102
 H          1.3680097190       -4.2742293091       -0.5646116808
 C          0.1189666587       -2.2544096798        0.8835685899
 H          0.3636996584       -1.6777801402        1.7873113202
 C         -0.2925124915       -3.6514983600        1.2923303091
 C          0.5188503283       -4.3878947805        2.3147982390
 C         -0.8445919718       -3.8757594906        2.6668574389
 H         -1.6474685019       -4.5871068806        2.7897162783
 H         -0.9157067120       -3.0197639009        3.3220686692
 H          1.3755174082       -3.8783805807        2.7301776894
 H          0.6534995083       -5.4525140104        2.1991969785
 H         -0.7319143813       -4.2204737396        0.4818535387
 O         -0.8499207115        0.2649767098        1.7662779508
