  62
        -98.93391366
 C         -1.6889954700       -1.1811963903        0.5992909383
 C         -1.9732548801        0.1971213195        0.7893733592
 C         -3.3573579002        0.6241112595        0.5503049195
 C         -4.2758579601       -0.2870222004        0.1834065889
 C         -5.7460197701       -0.0506821204       -0.0426241509
 C         -6.1182738602        0.8754924403       -1.2161648803
 C         -6.3131673304        2.3452742601       -0.8237693893
 H         -7.1704883805        2.7438099503       -1.3701013990
 H         -6.5670278104        2.3950138093        0.2357977707
 C         -5.1295125505        3.2740085704       -1.1101833887
 H         -5.2990112206        4.2076049600       -0.5693488281
 H         -5.1122650606        3.5106375511       -2.1765322285
 C         -3.7495406205        2.7301415203       -0.7393227091
 H         -3.4376821204        1.9853675608       -1.4754826696
 H         -3.0312450506        3.5494298104       -0.8071057785
 C         -3.6655609104        2.0891475294        0.6594823705
 H         -2.8466498904        2.5370307391        1.2256803708
 H         -4.5917647904        2.2452845989        1.2107210906
 H         -7.0598372502        0.5042970405       -1.6241329706
 H         -5.3688236302        0.7860207710       -2.0021295804
 H         -6.1738478400       -1.0395325203       -0.2202547916
 H         -6.1827770002        0.3402958189        0.8792877693
 O         -3.9645024699       -1.5987990002        0.0099479280
 C         -2.6749470299       -2.0787895902        0.1895945977
 O         -2.5687492997       -3.2994541500       -0.0429809831
 H          1.9266056599       -0.1761371496        0.2191732390
 C          1.6651394200       -0.8680339791       -0.5666226115
 C          0.5482590501       -1.6776328994       -0.4225237521
 C          0.2125640002       -2.5490195387       -1.4532961226
 C          0.9857740902       -2.6035058278       -2.5982984327
 C          2.1136836501       -1.8117988076       -2.7284856621
 C          2.4572829200       -0.9380056083       -1.7040165916
 N          3.5849551299       -0.1133379581       -1.8083938110
 S          4.5172923099        0.2187929911       -0.4590915308
 O          5.8029169998        0.6078779217       -0.9983683605
 O          4.5265033200       -0.8888098195        0.4674614985
 C          3.7476577597        1.6432442705        0.2790272802
 C          3.4825390995        2.7352674411       -0.5230325891
 C          2.9034904194        3.8576675506        0.0460435417
 C          2.6047151094        3.8709020596        1.4000523317
 C          2.8815119895        2.7683240891        2.1927926410
 C          3.4593664397        1.6421224496        1.6289978002
 H          3.6843144498        0.7601478592        2.2084764196
 H          2.6448665595        2.7787564284        3.2447305210
 H          2.1510507093        4.7444219693        1.8410697823
 H          2.6847187093        4.7176691710       -0.5663699677
 H          3.7309634595        2.6890666718       -1.5702437691
 H          4.1470090699       -0.2574699274       -2.6343344511
 H          2.7234536001       -1.8677482469       -3.6175623722
 H          0.7148627903       -3.2803792073       -3.3947169131
 H         -0.6597011697       -3.1758294589       -1.3485586631
 C         -0.2557874599       -1.6121025203        0.8541072480
 H          0.1768021400       -0.8113681707        1.4696151885
 C         -0.1254067198       -2.9186723008        1.6139915471
 C          1.2010944103       -3.2648842711        2.2196748269
 C          0.0482060902       -2.8911670518        3.1013338471
 H         -0.4232799197       -3.6644337123        3.6891828666
 H          0.0683332601       -1.9256325621        3.5853747378
 H          2.0092437802       -2.5581025409        2.0975228773
 H          1.5201567904       -4.2958533410        2.2010291462
 H         -0.7120101697       -3.7242415406        1.1924876066
 O         -1.1062303502        1.0327560994        1.1598286398
