  62
        -98.93921420
 C          2.1337896723        1.0174028395        0.0664323317
 C          2.8668439614        0.3160742469        1.0488458869
 C          3.6400323301       -0.8571263947        0.5970306004
 C          3.5719802698       -1.2148831886       -0.6990689931
 C          4.2962826338       -2.3380313538       -1.3921598397
 C          5.7763571036       -2.0136473461       -1.6550665158
 C          6.5074348816       -1.3505333429       -0.4904235727
 H          7.5033678846       -1.0683926955       -0.8417834087
 H          5.9874466974       -0.4301057561       -0.2186988287
 C          6.6805824410       -2.2221883648        0.7510739105
 H          7.2821394684       -1.6541447966        1.4652502040
 H          7.2429575916       -3.1193568920        0.4829116374
 C          5.3905536975       -2.6514418636        1.4525657927
 H          5.6705753855       -3.0561704982        2.4296263961
 H          4.9016570118       -3.4587589508        0.9137808807
 C          4.4018809158       -1.5206191453        1.7195044125
 H          3.6390813600       -1.8843187274        2.4191574955
 H          4.9170114788       -0.7126397510        2.2514047003
 H          6.2875849250       -2.9372981886       -1.9312880834
 H          5.8244429629       -1.3327773202       -2.5083412284
 H          4.1945449136       -3.2563031164       -0.8211790879
 H          3.7964617563       -2.4875417165       -2.3519010701
 O          2.8187374164       -0.5288826854       -1.6063770283
 C          2.0865271976        0.5922676121       -1.2607190770
 O          1.4523072173        1.1064356757       -2.2011010396
 O          2.8810633768        0.6527146872        2.2650512778
 C          1.3343395164        2.2420815990        0.4732664591
 C         -0.1322231835        2.0057313534        0.2077997482
 C         -0.9420453954        2.8924177811       -0.4885143871
 C         -2.2756967158        2.5948750296       -0.7117693485
 C         -2.8316208607        1.4200460577       -0.2408890754
 C         -2.0319480937        0.5282874169        0.4625138289
 C         -0.6977132307        0.8289308676        0.6845177501
 H         -0.0739705538        0.1298734804        1.2291304251
 N         -2.5900180616       -0.6632705930        0.9611672904
 S         -3.4438867064       -1.6376953952       -0.1091752251
 O         -3.3643889320       -2.9693081271        0.4524283298
 O         -2.9724126642       -1.4832015876       -1.4659484769
 C         -5.1188757998       -1.0495453295        0.0313504676
 C         -5.6940647470       -1.0146690720        1.2866995455
 C         -6.9987272343       -0.5650386987        1.4122142454
 C         -7.7033303144       -0.1638587431        0.2867976886
 C         -7.1128810660       -0.2084872024       -0.9668407106
 C         -5.8073437412       -0.6559042953       -1.0993174316
 H         -5.3041976357       -0.7019182430       -2.0521806357
 H         -7.6618009038        0.1034208521       -1.8408160679
 H         -8.7185781489        0.1860449575        0.3873128155
 H         -7.4609630361       -0.5284602529        2.3854732489
 H         -5.1131992536       -1.3383454995        2.1340893964
 H         -1.9358229951       -1.2198789550        1.4927724336
 H         -3.8678001518        1.1830021913       -0.4186133584
 H         -2.8913318605        3.2893725312       -1.2626799666
 H         -0.5273475890        3.8114463172       -0.8681351826
 H          1.4739015529        2.3334371302        1.5608777180
 C          1.8851383294        3.4833596136       -0.1954639706
 C          1.7224834562        4.8242067801        0.4540284524
 C          3.0693506315        4.1690499213        0.4150816334
 H          3.8246762912        4.5749446833       -0.2409709202
 H          3.4647358818        3.7536522901        1.3306248525
 H          1.5546450617        5.6849421740       -0.1753775995
 H          1.2046013760        4.8607622708        1.4003424360
 H          1.8431548397        3.4263490469       -1.2773981015
