  62
        -98.94430303
 C         -1.1353350688       -1.2481590602        0.8328536706
 C         -2.3031826685       -1.3846207812        0.0436477504
 C         -3.2709183792       -0.2798774617        0.1370015498
 C         -2.9853964301        0.7919254987        0.8977846194
 C         -3.8657522008        1.9999793782        1.0380744188
 C         -3.5493146813        3.0680357180       -0.0184319215
 C         -3.4309018906        2.5217022076       -1.4404196813
 H         -3.2091621110        3.3665383775       -2.0963207116
 H         -2.5804114402        1.8379080281       -1.4904201709
 C         -4.6872431501        1.8011182366       -1.9479604913
 H         -4.8983283101        2.1357842961       -2.9658649915
 H         -5.5455737304        2.0746713063       -1.3329764116
 C         -4.5651228891        0.2775690066       -1.9946692907
 H         -5.4156199788       -0.1151079341       -2.5584049007
 H         -3.6574187588       -0.0033468330       -2.5345177804
 C         -4.5535201090       -0.4276667828       -0.6329887604
 H         -5.4017649393       -0.0869973831       -0.0356164607
 H         -4.6703128483       -1.4999245430       -0.8153141300
 H         -2.6026791016        3.5429439587        0.2426890285
 H         -4.3321307218        3.8280499676        0.0163268680
 H         -4.9057797106        1.6898274975        0.9517048987
 H         -3.7067057413        2.4247374187        2.0305551787
 O         -1.8351206303        0.9056633697        1.6106853396
 C         -0.8926679996       -0.1076382097        1.6045107802
 O          0.1025865101        0.1147057912        2.3221417303
 H          2.1152332110       -0.7581938182        0.5570540411
 C          1.8496972015       -1.2301625187       -0.3775482488
 C          0.7752528520       -2.1101009394       -0.4167318787
 C          0.4460731227       -2.7154134701       -1.6240335485
 C          1.1776014327       -2.4346434901       -2.7643735585
 C          2.2392344422       -1.5485689194       -2.7268783786
 C          2.5774400615       -0.9404485987       -1.5218561588
 N          3.6490086010       -0.0460138380       -1.4584159289
 S          3.9710642501        0.9381997627       -0.1635754492
 O          4.9626270596        1.8629999031       -0.6743265893
 O          4.3852480803        0.1516700533        0.9723776612
 C          2.4888603594        1.8510884719        0.2274182502
 C          1.5783671294        2.1735943609       -0.7581109701
 C          0.4787722989        2.9474966004       -0.4234033307
 C          0.3151851083        3.3915005908        0.8789090791
 C          1.2359251283        3.0566498017        1.8572360995
 C          2.3330696589        2.2787426523        1.5296865600
 H          3.0633168989        1.9810155430        2.2650343302
 H          1.0978064279        3.3877696020        2.8737776293
 H         -0.5384960421        3.9974348003        1.1397817987
 H         -0.2480002411        3.1993238696       -1.1800606009
 H          1.7215952799        1.8159705306       -1.7652164000
 H          4.0398023809        0.2712532419       -2.3310189589
 H          2.8045633022       -1.3270718994       -3.6189224686
 H          0.9131693732       -2.9075155706       -3.6980737284
 H         -0.4001536869       -3.3808714606       -1.6711297784
 C         -0.0357740681       -2.3013539395        0.8413903412
 H          0.6112000516       -2.0525610887        1.6937211213
 C         -0.5518076873       -3.7122797397        1.0256155916
 C          0.4181261433       -4.7920647790        1.3968632223
 C         -0.5817031372       -4.3045345492        2.4010278819
 H         -1.4052117268       -4.9507373896        2.6657722519
 H         -0.2269764577       -3.6931751787        3.2184685617
 H          0.2838100940       -5.7752021492        0.9726098726
 H          1.4515266531       -4.5086371583        1.5321774024
 H         -1.3658157470       -3.9699894205        0.3616957716
 O         -2.5512844478       -2.3717323516       -0.6963667993
