  62
        -98.93431737
 C         -1.8300394089       -1.3473122483       -0.0280642027
 C         -2.0642518530       -0.1418190231       -0.7355691880
 C         -3.4791459202        0.2014295070       -0.9511095893
 C         -4.4486421023       -0.6318300114       -0.5356865995
 C         -5.9295776677       -0.4291633454       -0.7078961826
 C         -6.5668998555        0.4505447567        0.3763184031
 C         -6.2336326736        1.9402032470        0.2842377140
 H         -6.4444851401        2.2970242918       -0.7243469606
 H         -6.9110370214        2.4624399194        0.9628180403
 C         -4.7881806098        2.2913154488        0.6643417623
 H         -4.3437624243        1.4608437952        1.2178209020
 H         -4.7866557714        3.1564887977        1.3311906819
 C         -3.8850750880        2.6331213051       -0.5211844443
 H         -2.8779940825        2.8259256796       -0.1414376721
 H         -4.2428291097        3.5455035831       -1.0038257879
 C         -3.7862487919        1.5268737701       -1.5798614018
 H         -4.7098949131        1.4728115741       -2.1558827326
 H         -2.9640303327        1.7725859292       -2.2566688614
 H         -7.6501903150        0.3368535163        0.2931344791
 H         -6.2667883111        0.0701228668        1.3553778514
 H         -6.1296515165       -0.0009893670       -1.6904065764
 H         -6.3864834927       -1.4199234282       -0.6599410139
 O         -4.1792237689       -1.8048819682        0.0970183950
 C         -2.8776766817       -2.1706656093        0.3925614164
 O         -2.7812918117       -3.2447185428        1.0215133199
 O         -1.1625759920        0.6176043321       -1.1689785610
 C         -0.4253716175       -1.8217292513        0.3311357629
 C          0.2880394626       -0.7253452640        1.0831600402
 C         -0.0144503764       -0.6157379100        2.4418809052
 C          0.5167380688        0.3944210863        3.2183715700
 C          1.3770568768        1.3239102672        2.6614425634
 C          1.6857101105        1.2305833035        1.3103708087
 C          1.1515645876        0.2095483551        0.5322645519
 H          1.3861664395        0.2131930009       -0.5153809987
 N          2.5340587499        2.1738434655        0.7196782885
 S          3.4906465968        1.8522083750       -0.5995937697
 O          4.4835217222        2.9072048813       -0.5706468215
 O          2.7138220414        1.7607711172       -1.8091708107
 C          4.2951637054        0.2909719669       -0.2778576740
 C          4.7205579593       -0.0089889195        1.0014318477
 C          5.3846650788       -1.2046750283        1.2241358102
 C          5.6235923903       -2.0716027435        0.1688245324
 C          5.1979445192       -1.7532987457       -1.1110452448
 C          4.5248732961       -0.5628425899       -1.3378588310
 H          4.1610101482       -0.2852503786       -2.3139624115
 H          5.3810928611       -2.4273852048       -1.9320244174
 H          6.1428045427       -3.0002302713        0.3454648516
 H          5.7139321325       -1.4550786870        2.2196949803
 H          4.5296199023        0.6816796382        1.8062127780
 H          2.9429686662        2.8543883281        1.3407868378
 H          1.7899910763        2.1222802674        3.2590702502
 H          0.2608638199        0.4596292012        4.2650463160
 H         -0.6953170045       -1.3325568704        2.8806314285
 H         -0.5939818103       -2.6318658203        1.0586297999
 C          0.2353955189       -2.5067140977       -0.8564273838
 C          0.8367449530       -1.8424121244       -2.0566417817
 C          1.7167202230       -2.5544219390       -1.0723001359
 H          2.1614045481       -3.4917033527       -1.3709651259
 H          2.3372157584       -1.9621319397       -0.4187171746
 H          0.6641237424       -2.3132763088       -3.0147663625
 H          0.8477161084       -0.7664052491       -2.1175277315
 H         -0.3054817326       -3.4258319926       -1.0728849883
