  62
        -98.93535427
 C         -2.5753172134       -0.0138394043        0.1286744566
 C         -2.4764200380        1.1105498710        0.9817886112
 C         -1.9955893429        2.3657576855        0.3811167442
 C         -1.6606549984        2.3745955309       -0.9206362544
 C         -1.0545141587        3.5041908373       -1.7065251251
 C          0.4808830572        3.3979337123       -1.6875293748
 C          1.1575309677        4.1211001308       -0.5248899437
 H          2.2237278516        3.8886432641       -0.5765227890
 H          1.0447333852        5.2004444128       -0.6519437175
 C          0.6411575106        3.7291982732        0.8618640056
 H          0.5131254735        2.6445533437        0.9061185114
 H          1.4101051681        3.9868169399        1.5937310012
 C         -0.6657614912        4.4414002280        1.2426348311
 H         -0.8417096583        5.2580496203        0.5423649060
 H         -0.5534024550        4.8964795458        2.2291255383
 C         -1.9101436083        3.5449726212        1.3119238769
 H         -1.9867466920        3.1099712599        2.3137509338
 H         -2.8028500438        4.1644138499        1.1708218029
 H          0.7458093088        2.3377357725       -1.6500246896
 H          0.8744471708        3.8075434582       -2.6202677841
 H         -1.4008989272        3.3889365616       -2.7356577006
 H         -1.3898918390        4.4654375497       -1.3277993660
 O         -1.7840508778        1.2765206253       -1.7127071956
 C         -2.1900908728        0.0527479541       -1.2119598838
 O         -2.1792225319       -0.8651218606       -2.0537968146
 O         -2.7596682660        1.0607297349        2.2120809386
 C         -2.9119307270       -1.3533878547        0.7619302549
 C         -1.8301410392       -2.3422415953        0.3995626987
 C         -2.0579539324       -3.6361788413       -0.0445122854
 C         -0.9908416783       -4.4601496516       -0.3668810909
 C          0.3121610501       -4.0085166810       -0.2834295782
 C          0.5497470153       -2.7073481934        0.1521487934
 C         -0.5146461859       -1.9096413014        0.5265097286
 H         -0.3200808264       -0.9124063573        0.8958192637
 N          1.8546752848       -2.1818256365        0.1659539383
 S          2.1364302591       -0.5636477060        0.4939379358
 O          1.9269024568       -0.2684649287        1.8972905459
 O          1.4021486434        0.2356122900       -0.4521591956
 C          3.8796559007       -0.4915420451        0.1292939050
 C          4.2751749960       -0.3207285156       -1.1835382018
 C          5.6290255028       -0.2977824674       -1.4787211268
 C          6.5602200528       -0.4476790409       -0.4616623901
 C          6.1488780232       -0.6158794551        0.8518751569
 C          4.7960711301       -0.6387922140        1.1531294330
 H          4.4295274572       -0.7545605893        2.1604456148
 H          6.8748667771       -0.7283043069        1.6409255793
 H          7.6131956327       -0.4300544945       -0.6943613038
 H          5.9518070779       -0.1632325738       -2.4985070131
 H          3.5139084925       -0.2024963873       -1.9376031147
 H          2.5719866467       -2.8043299009        0.5050267027
 H          1.1383073629       -4.6427065437       -0.5636086491
 H         -1.1815488372       -5.4665968431       -0.7076713848
 H         -3.0673064339       -3.9969848250       -0.1562711917
 H         -2.8367996904       -1.1610932980        1.8469494369
 C         -4.3233816822       -1.8615762891        0.5139907325
 C         -5.4180839739       -0.9303791306        0.0885452192
 C         -4.9085732407       -1.9706774563       -0.8609539571
 H         -5.5440964471       -2.8164437854       -1.0796402494
 H         -4.2921876856       -1.6557386400       -1.6876203304
 H         -6.3986474707       -1.0592543038        0.5219740800
 H         -5.1517548614        0.1009121860       -0.0945315470
 H         -4.6057923132       -2.6336347787        1.2234888679
