  62
        -98.94413521
 C         -1.7184300308       -1.4138459714        0.3795671781
 C         -1.7928240815       -0.1895092732        1.0952379033
 C         -3.0349103711        0.5803873290        0.9538789773
 C         -4.0355513043        0.0754983472        0.2100959887
 C         -5.3551855242        0.7491005593       -0.0298547807
 C         -5.3252194075        1.6053989513       -1.3031248019
 C         -4.1189166678        2.5401514611       -1.3879179701
 H         -3.2109053920        1.9404410185       -1.4855121594
 H         -4.2212581436        3.1202739204       -2.3075038145
 C         -3.9704354638        3.4943880767       -0.1946438700
 H         -3.7395462454        4.4924958452       -0.5725316314
 H         -4.9154220811        3.5639042423        0.3451924426
 C         -2.8528122382        3.1175802565        0.7798137631
 H         -2.6759167220        3.9708220516        1.4401855049
 H         -1.9334699528        2.9355783486        0.2178295286
 C         -3.1241977529        1.8981653768        1.6709362592
 H         -2.3537035262        1.8690254443        2.4473154742
 H         -4.0948538243        2.0073456068        2.1592490990
 H         -6.2461530096        2.1897997199       -1.3472981799
 H         -5.3040667364        0.9388889418       -2.1684147594
 H         -5.6018112196        1.3672460230        0.8313243450
 H         -6.1182547501       -0.0233768146       -0.1404050196
 O         -3.9377298844       -1.1053481125       -0.4471469010
 C         -2.7735124972       -1.8623255365       -0.4158979547
 O         -2.8327092424       -2.8830155795       -1.1289951895
 O         -0.8603849808        0.2351479845        1.8287023578
 C         -0.4238991253       -2.1949050503        0.5219587727
 C          0.5536223800       -1.8486538569       -0.5763498102
 C          0.2102554573       -1.9686736532       -1.9188116357
 C          1.1258222574       -1.6463380904       -2.9036086295
 C          2.3910130478       -1.1932175852       -2.5721838936
 C          2.7472814829       -1.0780760566       -1.2333268493
 C          1.8279043267       -1.4113976891       -0.2475037329
 H          2.1205937598       -1.3285951423        0.7874036317
 N          4.0338391613       -0.6547654983       -0.8737804951
 S          4.3149658243        0.3166256153        0.4570971177
 O          5.6839208636        0.7516302122        0.2875526564
 O          4.0247754545       -0.4078533159        1.6679360129
 C          3.2193970621        1.7100682861        0.2688283562
 C          2.0075260376        1.7422180901        0.9263568046
 C          1.1683209261        2.8275494957        0.7294654590
 C          1.5474195149        3.8544108064       -0.1196100034
 C          2.7711567177        3.8089724044       -0.7719909249
 C          3.6147687115        2.7281457002       -0.5788701477
 H          4.5804991098        2.6631129817       -1.0535500008
 H          3.0675340259        4.6114631425       -1.4282137679
 H          0.8880629494        4.6949948563       -0.2697196822
 H          0.2202407604        2.8442499785        1.2429885756
 H          1.7153257344        0.9368609682        1.5798971295
 H          4.6251663144       -0.3942497477       -1.6490537684
 H          3.1017259115       -0.9390622012       -3.3436646612
 H          0.8494958994       -1.7436336625       -3.9427167032
 H         -0.7772083691       -2.3181330745       -2.1797835373
 H          0.0162491933       -1.8551281249        1.4701246288
 C         -0.6086374968       -3.6976335931        0.6006440242
 C          0.4629587891       -4.5245254765        1.2427321549
 C         -0.8553940761       -4.3388495782        1.9314427556
 H         -1.5367096032       -5.1748304141        1.9811333480
 H         -0.8908113899       -3.6954695156        2.7988293714
 H          0.6901083703       -5.4907898849        0.8192651516
 H          1.3229757916       -4.0085057051        1.6436509015
 H         -1.1224535419       -4.1148495375       -0.2552268246
