  62
        -98.92857690
 C         -1.9443402818       -0.6421360209       -0.1857238287
 C         -2.6388784922        0.5185818387        0.2364224487
 C         -4.0875133502        0.3789191516        0.5130309817
 C         -4.6661398644       -0.8289458957        0.4016105628
 C         -6.1093907865       -1.2071125270        0.6036873607
 C         -7.0050668319       -0.7799235556       -0.5696432475
 C         -6.7584010498        0.6368846612       -1.0807316325
 H         -5.7183703986        0.7262275118       -1.3996185036
 H         -7.3819617596        0.7834193663       -1.9667007963
 C         -7.0841431635        1.7514641642       -0.0893302526
 H         -6.9615719143        2.7003287736       -0.6179018873
 H         -8.1320826256        1.6709943294        0.2079631444
 C         -6.2208763900        1.7983056451        1.1736400260
 H         -6.5370506726        1.0500530663        1.8954628652
 H         -6.3876460741        2.7717157571        1.6441850743
 C         -4.7204425708        1.6874802206        0.9234530483
 H         -4.1924747196        1.9959517885        1.8336701213
 H         -4.4299121655        2.4199584336        0.1616824353
 H         -8.0473607601       -0.8830804453       -0.2629530632
 H         -6.8278829677       -1.4693740564       -1.3989652263
 H         -6.1370874232       -2.2962273812        0.6835539188
 H         -6.4771443397       -0.7978929791        1.5399205239
 O         -3.9551434593       -1.9310118687        0.0290961876
 C         -2.6159493586       -1.8692432694       -0.2816235351
 O         -2.1297103736       -2.9683315035       -0.6230404440
 O         -2.1134475480        1.6509860446        0.3960038091
 C         -0.4797808103       -0.7222348618       -0.5822267135
 C          0.5336077706       -0.5152771852        0.5225929864
 C          0.3227192639        0.2781715757        1.6423025934
 C          1.3159036970        0.4263820999        2.5957243098
 C          2.5444098568       -0.1888392929        2.4426934019
 C          2.7711931807       -0.9784948895        1.3216969388
 C          1.7641069519       -1.1484755024        0.3843920965
 H          1.9544275538       -1.7798321812       -0.4705708515
 N          4.0141385399       -1.6101882730        1.1153870782
 S          4.8379736116       -1.2589011531       -0.3003860524
 O          4.0987131025       -1.7532835750       -1.4328295761
 O          6.1632000663       -1.8031175561       -0.1084353442
 C          4.9110516790        0.5234304957       -0.3315450966
 C          3.8264312458        1.2365125889       -0.8029875179
 C          3.8591155522        2.6207198286       -0.7399084796
 C          4.9688622270        3.2644899324       -0.2144836303
 C          6.0523120236        2.5339701671        0.2497102994
 C          6.0222337796        1.1498593720        0.1987517497
 H          6.8415679825        0.5419110875        0.5471802788
 H          6.9154727920        3.0374997564        0.6543309336
 H          4.9880721190        4.3418781007       -0.1679204601
 H          3.0133048091        3.1873798118       -1.0954528248
 H          2.9786964936        0.7079714528       -1.2072151531
 H          4.6445136077       -1.5313116386        1.9014032178
 H          3.3196487437       -0.0642706937        3.1835381873
 H          1.1308956304        1.0411545076        3.4634328401
 H         -0.6143971387        0.7950477127        1.7613570730
 H         -0.3658388180       -1.7708344787       -0.9004773287
 C         -0.0458391234        0.1084343471       -1.7930464953
 C         -1.0172025268        0.7747164835       -2.7170681432
 C         -0.1186014770        1.6026940278       -1.8488032137
 H          0.6970622374        2.1340632051       -2.3175237733
 H         -0.5691041792        2.1094444274       -1.0109642250
 H         -0.8292637598        0.7306250605       -3.7799358655
 H         -2.0648716987        0.7315427391       -2.4563940742
 H          0.8242857123       -0.3371353023       -2.2695311254
