  62
        -98.93789460
 C          1.8535752594        0.5796101799        0.4979557508
 C          2.5991637496        0.2695380207       -0.6641058892
 C          3.7268790896       -0.6627888493       -0.4828790297
 C          3.9508450394       -1.2060496701        0.7253006700
 C          5.0128832394       -2.1999128403        1.1239771595
 C          6.4346178195       -1.9658653099        0.5933816400
 C          6.8247875494       -0.4929085997        0.4019911011
 H          6.0862989093        0.1553840999        0.8766690214
 H          7.7814184793       -0.3130361700        0.8960692214
 C          6.9764960197       -0.1021168287       -1.0702110186
 H          7.5922308097        0.7983906414       -1.1324994879
 H          7.5115708498       -0.8997366983       -1.5902352591
 C          5.6717269998        0.1899892717       -1.8105102387
 H          5.2429630697        1.1283152814       -1.4485350681
 H          5.9094030400        0.3332139824       -2.8673074786
 C          4.5863643899       -0.8925448184       -1.6923862996
 H          5.0207721799       -1.8892941784       -1.6955264002
 H          3.9219695500       -0.7990164679       -2.5558217397
 H          7.1171878794       -2.4334369603        1.3050603898
 H          6.5610028197       -2.4911442392       -0.3523539004
 H          5.0224955592       -2.1822250411        2.2164771596
 H          4.6779090595       -3.1965065402        0.8215749988
 O          3.1626469692       -0.9300119809        1.8036987000
 C          2.1089413192       -0.0375934409        1.7213603605
 O          1.4782517089        0.1133198283        2.7889391504
 O          2.3435210098        0.7409478115       -1.8013280790
 C          0.6946501693        1.5610769799        0.4368273113
 C         -0.4184757405        0.9586596004       -0.3859794394
 C         -0.8938790703        1.5056777712       -1.5691553491
 C         -1.9080857701        0.8766295316       -2.2724601797
 C         -2.4767117301       -0.2936125988       -1.8061840106
 C         -2.0189752703       -0.8395134596       -0.6124505309
 C         -0.9990700305       -0.2134692900        0.0857131397
 H         -0.6370529107       -0.6403090506        1.0132058495
 N         -2.6180964604       -2.0097747499       -0.1125454018
 S         -4.2933852304       -2.0441747301       -0.0798273222
 O         -4.6377431905       -2.9087660108        1.0272487372
 O         -4.7923514201       -2.4496997992       -1.3703686025
 C         -4.7873446205       -0.3618646203        0.2541998389
 C         -4.3542678808        0.2233734089        1.4276337294
 C         -4.6913053009        1.5425976787        1.6824747202
 C         -5.4520051108        2.2506691593        0.7644624806
 C         -5.8850826405        1.6467497201       -0.4054311399
 C         -5.5488084704        0.3280916403       -0.6668237208
 H         -5.8596945902       -0.1789384791       -1.5656187912
 H         -6.4783019404        2.1990847905       -1.1161198297
 H         -5.7079428409        3.2791502591        0.9643195812
 H         -4.3550434411        2.0130072381        2.5926454406
 H         -3.7662918609       -0.3536588215        2.1238359691
 H         -2.2309861905       -2.3205552205        0.7664279581
 H         -3.2617438700       -0.7982316384       -2.3457766511
 H         -2.2602934100        1.3049315522       -3.1981554695
 H         -0.4625623903        2.4163075714       -1.9492432584
 H          0.3304425191        1.6555638192        1.4698052613
 C          1.1515247193        2.9212336902       -0.0433005777
 C          0.3330680792        4.1334541900        0.2814573630
 C          1.6507767991        3.9147599896        0.9606581631
 H          2.4837112391        4.5463264298        0.6901574137
 H          1.6501908289        3.6174993889        1.9995902729
 H          0.2608947193        4.9198461905       -0.4541488765
 H         -0.5658215409        3.9867849395        0.8607256127
 H          1.6567905795        2.8842587909       -1.0006249376
