  62
        -98.93676353
 C         -1.7638111305       -0.9080436926        0.2263456107
 C         -3.1132639445       -1.1742576521        0.5626084957
 C         -4.0501230402       -0.0336924869        0.5548057289
 C         -3.5711143456        1.1921405585        0.2736887192
 C         -4.3287527143        2.4883209649        0.1616655027
 C         -5.1268051195        2.5965315814       -1.1475227251
 C         -5.8991191355        1.3384592157       -1.5357489357
 H         -6.3331732414        1.5075291518       -2.5248184500
 H         -5.2018393506        0.5036328607       -1.6284734544
 C         -7.0322435268        0.9510910560       -0.5884232603
 H         -7.5515595323        0.0997238689       -1.0360094172
 H         -7.7441089472        1.7770711923       -0.5248813927
 C         -6.6142333833        0.5584069878        0.8303507604
 H         -7.4752865496        0.0746616666        1.3007220424
 H         -6.3879509083        1.4355294500        1.4306512340
 C         -5.4625077344       -0.4392528875        0.9011398226
 H         -5.4106047408       -0.8406201329        1.9205538982
 H         -5.6951924622       -1.3018231751        0.2660492442
 H         -5.8165964427        3.4378812007       -1.0622804584
 H         -4.4239081140        2.8170170598       -1.9547874652
 H         -4.9780755050        2.6177225921        1.0224033838
 H         -3.5852847047        3.2881615529        0.1821275456
 O         -2.2527909066        1.4100721592        0.0050681602
 C         -1.3185323193        0.3888356946       -0.0249006998
 O         -0.1604383806        0.7725168321       -0.2711329327
 O         -3.5296760315       -2.3262025207        0.8602320358
 C         -0.7966282911       -2.0767899788        0.2040905740
 C          0.4730388200       -1.7315219050        0.9406593762
 C          0.3949082783       -1.4423191007        2.3013437936
 C          1.5282571842       -1.1306744589        3.0257514157
 C          2.7669983369       -1.1042101620        2.4085694089
 C          2.8577193293       -1.3931480281        1.0529742490
 C          1.7155298925       -1.7069157872        0.3269590160
 H          1.8145467360       -1.8984238670       -0.7280403215
 N          4.1099371533       -1.4135062602        0.4096117354
 S          4.4020819341       -0.4582507761       -0.9336002165
 O          3.4512051915       -0.7593080772       -1.9704913236
 O          5.7931635629       -0.6997108693       -1.2533397688
 C          4.2206145953        1.2171543982       -0.3473698587
 C          5.3626048061        1.9452911961       -0.0716550035
 C          5.2367104424        3.2255738222        0.4413742581
 C          3.9750657453        3.7505852797        0.6788305301
 C          2.8408113860        3.0039758374        0.4011635271
 C          2.9569625078        1.7226335387       -0.1172081297
 H          2.0813776407        1.1330126090       -0.3381446436
 H          1.8549358196        3.4017345620        0.5832116084
 H          3.8740356614        4.7462551783        1.0815554202
 H          6.1184858370        3.8076024648        0.6563020222
 H          6.3215465566        1.4961371276       -0.2742123664
 H          4.8911679116       -1.3284895170        1.0453240071
 H          3.6561286882       -0.8643083408        2.9720798103
 H          1.4492324454       -0.9055958522        4.0786219881
 H         -0.5739052973       -1.4621252064        2.7823500531
 H         -1.3117158987       -2.8679691299        0.7752763551
 C         -0.5428340836       -2.6428221204       -1.1849758438
 C         -1.5853184908       -2.5670503485       -2.2589820175
 C         -0.3246345789       -1.7674017388       -2.3807613091
 H          0.4160747068       -2.0669577890       -3.1081494678
 H         -0.3725400410       -0.6995392912       -2.2355653199
 H         -1.7199543539       -3.4215818176       -2.9049320631
 H         -2.5019780233       -2.0423181286       -2.0316880765
 H          0.0370144680       -3.5605303188       -1.1464768493
