  62
        -98.94132191
 C          1.5778811127        0.6113004590        0.9343208079
 C          2.8197572624        1.1009241453        0.4618080335
 C          3.9061566568        0.1119049852        0.3718281206
 C          3.6718052970       -1.1684162224        0.7094618230
 C          4.6715897508       -2.2827213699        0.6043725169
 C          4.5904242389       -2.9774119251       -0.7621655112
 C          4.5996713167       -2.0126239094       -1.9479644864
 H          4.5709486932       -2.6157550851       -2.8580711961
 H          3.6848884246       -1.4155320468       -1.9294864470
 C          5.8144977574       -1.0754372737       -1.9947220317
 H          6.6110538720       -1.4688319551       -1.3620227369
 H          6.1968656173       -1.0481492817       -3.0173407910
 C          5.5156730722        0.3698895891       -1.5924190910
 H          4.6563358087        0.7380341307       -2.1585988640
 H          6.3768758586        0.9844792218       -1.8681597467
 C          5.2454355377        0.6041320691       -0.1009052505
 H          6.0490154775        0.1633330289        0.4925189273
 H          5.2450810866        1.6846457739        0.0696499409
 H          5.4302670396       -3.6694251070       -0.8475363427
 H          3.6658141743       -3.5577430374       -0.8011529641
 H          5.6713702279       -1.8823598532        0.7608784471
 H          4.4560856982       -3.0126290757        1.3864754916
 O          2.4634047113       -1.6057568402        1.1459717660
 C          1.3934683362       -0.7360383177        1.2630043909
 O          0.3439727900       -1.2709198582        1.6717969540
 H         -1.9432254004        0.3446372325        0.2936030602
 C         -1.5369511406        0.9859055431       -0.4733731704
 C         -0.3463381959        1.6583833865       -0.2382705810
 C          0.1832032117        2.4595885066       -1.2443142770
 C         -0.4795048269        2.5891071113       -2.4510321715
 C         -1.6810056340        1.9388687533       -2.6724570556
 C         -2.2125001316        1.1267004773       -1.6771333591
 N         -3.4104551350        0.4318640382       -1.8836103975
 S         -4.4589673149        0.1118096986       -0.6230735473
 O         -5.7214533407       -0.1657698509       -1.2747381055
 O         -4.4708407536        1.1819473593        0.3469698153
 C         -3.8407494366       -1.3894705753        0.1041303383
 C         -3.5905955407       -2.4630701262       -0.7268476564
 C         -3.1256868324       -3.6435581116       -0.1712163797
 C         -2.9215047221       -3.7304993972        1.1974796005
 C         -3.1811455481       -2.6449836813        2.0184961545
 C         -3.6468188087       -1.4617929974        1.4685841749
 H         -3.8530170940       -0.5909424779        2.0714269707
 H         -3.0149109482       -2.7122919282        3.0815777353
 H         -2.5536465851       -4.6483412142        1.6282628812
 H         -2.9199801901       -4.4909702316       -0.8054886169
 H         -3.7612695745       -2.3579568815       -1.7854615688
 H         -3.8916605601        0.6420465790       -2.7452292265
 H         -2.2023616626        2.0526158406       -3.6108601143
 H         -0.0606847696        3.2120795125       -3.2270854471
 H          1.1239871727        2.9607251964       -1.0780102880
 C          0.3448933511        1.4874824321        1.0932248955
 H         -0.3363101626        0.9226649844        1.7443347478
 C          0.6264097700        2.8246371763        1.7491494078
 C         -0.5274499076        3.6089500208        2.2951786971
 C          0.4515082505        2.9650108470        3.2297194561
 H          1.1391209238        3.5967331108        3.7718681552
 H          0.1315245782        2.0932645829        3.7821505879
 H         -1.5129260131        3.1744658033        2.2080897037
 H         -0.5131469074        4.6835516635        2.1959130907
 H          1.4380417799        3.3732981330        1.2911804100
 O          3.0383447893        2.2958062201        0.1294817227
