  62
        -98.93433016
 C          1.7075171712        1.1449354559        0.1210673359
 C          2.1361204457       -0.0520352894       -0.5025756382
 C          3.5911285088       -0.1929326605       -0.7108226249
 C          4.4214091541        0.7802897010       -0.3023787165
 C          5.9199562537        0.8627061673       -0.4515366723
 C          6.7308258535       -0.4080539963       -0.1609547676
 C          6.1410207766       -1.3224957208        0.9226706188
 H          5.3414093892       -0.8052673868        1.4556483164
 H          6.9196947938       -1.5567533325        1.6509531992
 C          5.6089850156       -2.6445676046        0.3639343575
 H          5.5538122808       -3.3726737605        1.1767836303
 H          6.3228072647       -3.0271772091       -0.3689579136
 C          4.2230614139       -2.5775487590       -0.2768725008
 H          3.4629106305       -2.4223689695        0.4938398819
 H          4.0169470252       -3.5475702232       -0.7359416553
 C          4.0374210182       -1.4817318894       -1.3390648313
 H          3.2257444982       -1.7930027726       -2.0026353260
 H          4.9392980200       -1.3502130627       -1.9322985096
 H          7.7281582836       -0.0832854892        0.1404307331
 H          6.8524791699       -0.9806979227       -1.0794218957
 H          6.2290330564        1.6581095015        0.2308438000
 H          6.1425518393        1.2046030662       -1.4665378644
 O          3.9667556538        1.9058789197        0.3178128933
 C          2.6192134656        2.1092778188        0.5569634535
 O          2.3632295833        3.1687845559        1.1628143955
 O          1.3612721646       -0.9663202675       -0.8829032688
 C          0.2420661546        1.4284045188        0.4057892148
 C         -0.4330412817        0.2008497551        0.9638184607
 C         -0.0651690590       -0.2489905462        2.2293812220
 C         -0.6516539826       -1.3729952880        2.7774984010
 C         -1.6335194277       -2.0596535000        2.0847189994
 C         -2.0047944774       -1.6207463233        0.8196684011
 C         -1.4058161165       -0.4968440158        0.2665843996
 H         -1.6728139923       -0.2086887521       -0.7355619306
 N         -2.9916913398       -2.2972233564        0.0926581304
 S         -3.9907408334       -1.4840003274       -0.9624409439
 O         -5.1737900618       -2.3153335201       -1.0436181446
 O         -3.3241104549       -1.2258268481       -2.2135237529
 C         -4.3913305617        0.0586264009       -0.1576457511
 C         -4.8932451770        0.0255353542        1.1283265616
 C         -5.2055843158        1.2197215731        1.7571920362
 C         -5.0160074915        2.4215754010        1.0923153230
 C         -4.5198045009        2.4383392560       -0.2017647028
 C         -4.2027890172        1.2463952522       -0.8339037709
 H         -3.8076616800        1.2139462657       -1.8369080609
 H         -4.3748064970        3.3735839401       -0.7190780964
 H         -5.2572210781        3.3507266986        1.5840287332
 H         -5.5938413870        1.2104894905        2.7628534331
 H         -5.0372334005       -0.9238812400        1.6173811311
 H         -3.4611450207       -3.0452277474        0.5794267731
 H         -2.0950989052       -2.9373527199        2.5107932653
 H         -0.3490546986       -1.7150653154        3.7558260893
 H          0.7001527008        0.2900089309        2.7717620126
 H          0.2524575479        2.1950348250        1.1981800750
 C         -0.5165434946        2.0300191792       -0.7675954611
 C          0.1593561867        2.9493007903       -1.7390410378
 C         -0.2907083719        1.5906679551       -2.1813951670
 H         -1.1446159492        1.5137125768       -2.8393572416
 H          0.4544552778        0.8308495469       -2.3575192878
 H         -0.3833888631        3.8133559494       -2.0913123140
 H          1.2184137631        3.1210179391       -1.6117706924
 H         -1.5367514045        2.2833867215       -0.4944619404
