  62
        -98.94374882
 C         -1.4818137925       -1.2598917739        0.7152152527
 C         -2.5368522760       -1.1742658183       -0.2252422881
 C         -3.4245992399       -0.0079700242       -0.0840547598
 C         -3.1476392251        0.9314247590        0.8378837258
 C         -3.9323770672        2.1954492912        1.0378308149
 C         -3.4024907004        3.3406361982        0.1628914056
 C         -3.2047924186        2.9614655121       -1.3044297103
 H         -2.8457759516        3.8513259579       -1.8261758751
 H         -2.4197052733        2.2052842040       -1.3793268465
 C         -4.4658024733        2.4312896999       -1.9995960712
 H         -5.3511997209        2.7026953285       -1.4235001190
 H         -4.5565357000        2.9088483108       -2.9774756451
 C         -4.4589665992        0.9204857540       -2.2371684324
 H         -3.5303788460        0.6309279407       -2.7355517400
 H         -5.2820074047        0.6780294531       -2.9147713632
 C         -4.6270996814        0.0511177482       -0.9849392047
 H         -5.5053126393        0.3814425258       -0.4259126323
 H         -4.7998750702       -0.9760353096       -1.3194120961
 H         -4.1017608445        4.1759968980        0.2305764426
 H         -2.4418273798        3.6718719315        0.5630724117
 H         -4.9782553123        2.0044637986        0.8039820623
 H         -3.8535549020        2.4853717435        2.0869035815
 O         -2.0828115787        0.8506632700        1.6757770603
 C         -1.2398554738       -0.2451360770        1.6472365057
 O         -0.3222728085       -0.2092701974        2.4904095879
 H          1.9656753593       -1.4981771878        1.2988419804
 C          1.8239581117       -1.6314744535        0.2344682215
 C          0.6113919178       -2.1202301023       -0.2321074306
 C          0.4282783060       -2.2497185343       -1.6046168089
 C          1.4403542100       -1.9030427509       -2.4821802780
 C          2.6502901509       -1.4195305502       -2.0135828735
 C          2.8369441712       -1.2781413501       -0.6456589096
 N          4.0593838399       -0.7515470916       -0.1651937210
 S          4.2865254603        0.8834254355       -0.4567740903
 O          4.3085894707        1.0983908557       -1.8805245291
 O          5.4815930635        1.2493957510        0.2678942356
 C          2.8625254435        1.6752572162        0.2670093702
 C          2.9449580259        2.1465345538        1.5617961479
 C          1.8164128736        2.6923638537        2.1503130170
 C          0.6274914954        2.7469333927        1.4408312909
 C          0.5610046798        2.2663875515        0.1431147455
 C          1.6857883429        1.7209783522       -0.4528613671
 H          1.6666082681        1.3354006472       -1.4598193982
 H         -0.3683205640        2.3019452560       -0.4033263876
 H         -0.2570281669        3.1512708098        1.9073187685
 H          1.8611690944        3.0618447442        3.1621497750
 H          3.8894895015        2.0843712963        2.0786524360
 H          4.1958449127       -0.9204389672        0.8224714500
 H          3.4402827092       -1.1245769903       -2.6848486677
 H          1.2850029781       -2.0067812375       -3.5455321606
 H         -0.5229806746       -2.5963606230       -1.9775816680
 C         -0.4919498210       -2.4157956054        0.7536824716
 H         -0.0515152480       -2.3942536844        1.7596124768
 C         -1.1199284060       -3.7767466273        0.5403205860
 C         -0.3516541689       -4.9947284544        0.9537589298
 C         -1.5611833876       -4.5715766294        1.7307720955
 H         -2.4609600092       -5.1627273631        1.6499296910
 H         -1.4126540695       -4.1363936094        2.7085889297
 H         -0.4180663199       -5.8789291266        0.3387526935
 H          0.6181114516       -4.8456922212        1.4046615266
 H         -1.7299610035       -3.8440757389       -0.3496097794
 O         -2.7547458828       -2.0149291780       -1.1363488730
