  62
        -98.93827650
 C          1.2941337948        1.6200839142       -0.2052061391
 C          1.3484065828        0.2078041503       -0.2479145614
 C          2.5627295426       -0.4295159460        0.3071186570
 C          3.5362830984        0.3482042096        0.8138929022
 C          4.8629299240       -0.0704461899        1.3901996956
 C          5.8766369337       -0.4811283145        0.3100189854
 C          5.3151289244       -1.3757939823       -0.7918854889
 H          4.4812272423       -0.8651960052       -1.2767455363
 H          6.0976644832       -1.5049294881       -1.5444230093
 C          4.8679735249       -2.7636116050       -0.3390658243
 H          4.5812724246       -3.3190615011       -1.2355767023
 H          5.7153930554       -3.2820147832        0.1151589834
 C          3.6919309949       -2.8005864832        0.6392940404
 H          3.3315284148       -3.8325268684        0.6743243322
 H          4.0126084255       -2.5524044205        1.6473287219
 C          2.5016574345       -1.9362508971        0.2361195207
 H          2.2142654284       -2.1772716148       -0.7932638106
 H          1.6374032753       -2.2207318797        0.8477621234
 H          6.7156014534       -0.9811960039        0.7970595330
 H          6.2549101348        0.4294237201       -0.1613034384
 H          5.2583872823        0.7953162879        1.9260921293
 H          4.7214515328       -0.8692293328        2.1120962169
 O          3.4428655188        1.7094669285        0.8281102265
 C          2.3382337979        2.3727472657        0.3380812234
 O          2.4011838370        3.6158474538        0.4334276383
 H         -1.6744831372        0.3595040680       -0.3505940081
 C         -1.8483725218        1.1768421526        0.3283125263
 C         -1.0358106755        2.3007862898        0.2798767797
 C         -1.2559927416        3.3268532285        1.1933584962
 C         -2.2733958963        3.2333444459        2.1252124782
 C         -3.0927815264        2.1195361065        2.1595605513
 C         -2.8726225502        1.0821301275        1.2593577091
 N         -3.6572404384       -0.0744740036        1.3073599149
 S         -3.9298599093       -1.0335971461       -0.0313507458
 O         -4.0722489333       -0.2500505547       -1.2363723453
 O         -5.0890685688       -1.8203346422        0.3421069133
 C         -2.5259986694       -2.1198712038       -0.1334487705
 C         -2.0522885028       -2.6950494395        1.0281266273
 C         -0.9993465234       -3.5906103285        0.9480638696
 C         -0.4454785058       -3.8982591231       -0.2850425281
 C         -0.9331150948       -3.3118377713       -1.4407939967
 C         -1.9848109422       -2.4138335327       -1.3670815060
 H         -2.3853630578       -1.9249065623       -2.2412346021
 H         -0.4932299191       -3.5424955047       -2.3979128918
 H          0.3778360896       -4.5930452984       -0.3445586350
 H         -0.6102803602       -4.0428269563        1.8469409632
 H         -2.5054051387       -2.4304575309        1.9694729342
 H         -4.4468849696       -0.0468296134        1.9343370257
 H         -3.8916173903        2.0470425046        2.8819444538
 H         -2.4349656267        4.0376817778        2.8270393425
 H         -0.6115913281        4.1944238706        1.1727255771
 C          0.0969423876        2.4094393146       -0.7129353913
 H          0.4236219156        3.4581075156       -0.7332789589
 C         -0.3244649530        2.0131997342       -2.1133010570
 C         -1.1869476306        2.9508378362       -2.9010786768
 C          0.2466247516        2.7463375039       -3.2878189376
 H          0.4654970412        2.1896267280       -4.1867083743
 H          0.9467865139        3.5447174129       -3.0876225236
 H         -1.9590754200        2.5337372238       -3.5294792940
 H         -1.4581660938        3.8878467314       -2.4379013750
 H         -0.4998449496        0.9522338161       -2.2312870274
 O          0.4428435780       -0.5200555672       -0.7315588377
