  62
        -98.94195414
 C          1.1959026461        1.5720356287        0.5130648805
 C          2.1218569686        1.1780282452       -0.4814391967
 C          3.1327774462        0.1875826893       -0.0739026060
 C          3.1346373963       -0.2784178579        1.1864886525
 C          4.0870347166       -1.2595561974        1.8227270154
 C          4.4605284130       -2.5100191873        1.0151643344
 C          3.3565766321       -3.0511436823        0.0943459165
 H          3.2432012674       -4.1231110596        0.2700257514
 H          2.3946519673       -2.5887554110        0.3281798660
 C          3.6683801857       -2.8535768545       -1.3911419946
 H          3.0583023499       -3.5525235151       -1.9687538058
 H          4.7166892317       -3.1068037040       -1.5674361255
 C          3.3906067446       -1.4548152044       -1.9389314453
 H          2.3108726434       -1.2782391994       -1.9546459855
 H          3.7362334911       -1.4234999321       -2.9753245294
 C          4.0437926522       -0.2982508913       -1.1634514964
 H          5.0207376619       -0.5820966624       -0.7796546377
 H          4.1675670510        0.5417572325       -1.8523697009
 H          4.7376330068       -3.2793766834        1.7380921824
 H          5.3485761802       -2.3063505045        0.4179154605
 H          3.6025697953       -1.5600946734        2.7549456086
 H          5.0013574931       -0.7220339250        2.0915637101
 O          2.2324289206        0.1418258141        2.1178889002
 C          1.2240128987        1.0343287314        1.7972353066
 O          0.4265639597        1.2674509579        2.7301513861
 O          2.1078312955        1.6278552169       -1.6567987156
 C          0.0550232779        2.5055982088        0.1573956415
 C         -0.8121028896        1.8828097105       -0.9130907309
 C         -1.4956605633        2.6257241368       -1.8681850089
 C         -2.2906170242        1.9917152625       -2.8077307452
 C         -2.4359782146        0.6157124088       -2.8103678720
 C         -1.7583662311       -0.1355075498       -1.8571105262
 C         -0.9615923739        0.5039412037       -0.9223494484
 H         -0.4211014756       -0.0935693646       -0.2058894167
 N         -1.8546789861       -1.5339951497       -1.8196587331
 S         -1.7806085131       -2.3427197107       -0.3591631114
 O         -0.4395735851       -2.3246743551        0.1684955064
 O         -2.3236302503       -3.6514940930       -0.6553901783
 C         -2.9077123208       -1.4552781289        0.7013859635
 C         -2.4452220191       -0.6591898872        1.7283976584
 C         -3.3605381938        0.0565046894        2.4852962587
 C         -4.7145833118       -0.0361867670        2.2063998458
 C         -5.1657181048       -0.8492435164        1.1769788116
 C         -4.2559667589       -1.5624809188        0.4151542555
 H         -4.5670344134       -2.2138944239       -0.3853167725
 H         -6.2200691218       -0.9255479051        0.9658131542
 H         -5.4205908826        0.5258850879        2.7970658209
 H         -2.9970914737        0.6855531298        3.2825092167
 H         -1.3873840229       -0.5958511873        1.9318331849
 H         -2.5302119147       -1.9400406827       -2.4493168900
 H         -3.0544998193        0.1262808339       -3.5466335738
 H         -2.8094313271        2.5794660782       -3.5496219455
 H         -1.3982401092        3.6990536880       -1.8818573720
 H         -0.5555349403        2.6005908846        1.0685938210
 C          0.5772962543        3.8759878078       -0.2238999793
 C         -0.2097101551        5.1077541555        0.1061947634
 C          1.0461893179        4.7964881850        0.8615220300
 H          1.9232079425        5.4002479076        0.6832698608
 H          0.9590488205        4.4444963901        1.8795143941
 H         -0.1935293598        5.9316115779       -0.5913770140
 H         -1.1505991230        4.9798058070        0.6199039346
 H          1.1451114028        3.8601384281       -1.1467504965
