  62
        -98.94379418
 C          1.9040422402        1.0414914272        0.0631410134
 C          1.3014108589        1.8671216894       -0.9163066562
 C          0.2187230008        2.7514683210       -0.4529309029
 C         -0.1096913696        2.7649980694        0.8502274587
 C         -1.1377819764        3.6169640287        1.5514915205
 C         -2.5038942892        3.7871656069        0.8729425558
 C         -2.9832118054        2.5792668923        0.0544879646
 H         -2.3633189332        1.7053225059        0.2622940050
 H         -4.0028622227        2.3283758713        0.3533333514
 C         -2.9887485591        2.8426728580       -1.4530051189
 H         -3.6524126683        2.1182720393       -1.9321496954
 H         -3.3988742719        3.8389320645       -1.6361400390
 C         -1.6309376284        2.7219368616       -2.1444866376
 H         -1.3286730761        1.6707316521       -2.1688913600
 H         -1.7552784783        3.0377191865       -3.1838210769
 C         -0.4891033811        3.5392653239       -1.5162296919
 H          0.2534905521        3.7322653079       -2.2955978072
 H         -0.8510771391        4.4930318384       -1.1383162109
 H         -3.2247673409        3.9966231443        1.6647235838
 H         -2.4835127709        4.6639331753        0.2270389419
 H         -1.2730979705        3.1519235066        2.5304819394
 H         -0.6995342144        4.6047072797        1.7214832924
 O          0.5238449360        1.9801412169        1.7664406164
 C          1.5082880054        1.0733377319        1.3988660911
 O          1.9363874920        0.3796362715        2.3396701143
 O          1.6593995874        1.8717912790       -2.1248630670
 C          2.9508650415        0.0284272448       -0.3698281942
 C          2.3720543419       -1.3528186590       -0.1762656935
 C          2.9313754983       -2.3230113633        0.6438422342
 C          2.2983537346       -3.5430899028        0.8107664368
 C          1.0979800242       -3.8137686829        0.1804428600
 C          0.5343838423       -2.8534558185       -0.6539031388
 C          1.1849326413       -1.6443173886       -0.8392968403
 H          0.7505328703       -0.9066928561       -1.4988612360
 N         -0.6765424457       -3.1060403611       -1.3225045932
 S         -1.9002470090       -1.9690260947       -1.3705537539
 O         -3.0185370177       -2.6732379126       -1.9584220910
 O         -1.4555460202       -0.7869876646       -2.0601194427
 C         -2.2666938898       -1.5970819914        0.3331790959
 C         -3.3341490523       -2.2250595949        0.9448105381
 C         -3.5896512543       -1.9641948631        2.2812382074
 C         -2.7692680585       -1.0949369145        2.9849357885
 C         -1.6980155000       -0.4768009187        2.3589886343
 C         -1.4457404195       -0.7253859861        1.0192512024
 H         -0.6208539311       -0.2551829078        0.5058772887
 H         -1.0459720005        0.1929029856        2.8983394806
 H         -2.9628490235       -0.8955812601        4.0270614190
 H         -4.4234020151       -2.4407654232        2.7711386361
 H         -3.9454434610       -2.8915610563        0.3581733123
 H         -1.0627771941       -4.0223622912       -1.1457190531
 H          0.5997581029       -4.7601308612        0.3263062315
 H          2.7404308687       -4.2890422398        1.4534984163
 H          3.8552578525       -2.1217079561        1.1598758084
 H          3.0877676628        0.1937240895       -1.4486314978
 C          4.2715801714        0.2523294894        0.3324743899
 C          5.5390111209       -0.2552403895       -0.2856103757
 C          5.2547062643        1.2156732978       -0.2591708066
 H          5.8277692990        1.8415198160        0.4083323566
 H          4.9798385355        1.7021811109       -1.1838745316
 H          6.3123119635       -0.6387975045        0.3624000080
 H          5.4613424506       -0.7690020496       -1.2319504304
 H          4.1830332538        0.2320103068        1.4123032613
