  62
        -98.94226960
 C         -1.2028773935       -0.9137131168        0.4270047468
 C         -2.0831150860       -0.7136710430       -0.6602975479
 C         -3.0837837870        0.3585309908       -0.5066347712
 C         -3.0831705303        1.1115281039        0.6090170092
 C         -3.9347734985        2.2980545538        1.0109301947
 C         -5.2293556633        2.6198755529        0.2686994283
 C         -6.3407429161        1.5851359848        0.4411170545
 H         -6.6912769217        1.6212278035        1.4756224272
 H         -7.1748958959        1.8712338549       -0.2031869984
 C         -5.9495089187        0.1413456206        0.1364423495
 H         -5.1882312707       -0.1894897053        0.8457515967
 H         -6.8319179505       -0.4842594983        0.2955339097
 C         -5.4484365513       -0.1144653600       -1.2836787774
 H         -6.1815848490        0.2531254136       -2.0041412361
 H         -5.3657432104       -1.1968365365       -1.4126800992
 C         -4.0774223810        0.4965253913       -1.6239276024
 H         -3.6608133672       -0.0557484366       -2.4715581945
 H         -4.1700932294        1.5365028321       -1.9286994710
 H         -5.5930879511        3.5668607055        0.6770174262
 H         -5.0265530765        2.7899923131       -0.7846270234
 H         -4.1573618753        2.1580404757        2.0737163665
 H         -3.2722973217        3.1692015478        0.9475590899
 O         -2.1773090465        0.9126179680        1.6116659326
 C         -1.2220691868       -0.0846391531        1.5462050773
 O         -0.4581084818       -0.1323803133        2.5329020120
 H          0.8126909618        0.4075727163       -0.2874747699
 C          1.2517789239       -0.3619337258       -0.9035131885
 C          0.8491913456       -1.6803295462       -0.7431801247
 C          1.4053743807       -2.6467406449       -1.5717654833
 C          2.3301967780       -2.2890501516       -2.5380190829
 C          2.7418209654       -0.9761268174       -2.6807954182
 C          2.1949969312       -0.0032675798       -1.8520337025
 N          2.5848316683        1.3421592085       -1.9423880207
 S          2.7223026301        2.2353559280       -0.5334614461
 O          1.4196784024        2.6248102078       -0.0532343333
 O          3.6100710639        3.3228873323       -0.8886779243
 C          3.5424275868        1.1425209974        0.6145578617
 C          2.8686626649        0.5913025937        1.6846743832
 C          3.5423116495       -0.2947242313        2.5121190623
 C          4.8668862394       -0.6127352197        2.2591058386
 C          5.5328438556       -0.0433693777        1.1838635482
 C          4.8655462920        0.8396891590        0.3522471601
 H          5.3509812475        1.3122587548       -0.4861675874
 H          6.5649941901       -0.2875307044        0.9912377236
 H          5.3822754513       -1.3054623905        2.9054934260
 H          3.0152327058       -0.7316797931        3.3455389484
 H          1.8349070986        0.8435828448        1.8653072187
 H          3.3442792676        1.5253992145       -2.5815685211
 H          3.4698004449       -0.7026748947       -3.4288302871
 H          2.7461737500       -3.0474169092       -3.1835492594
 H          1.1096616037       -3.6775505857       -1.4663404421
 C         -0.1355799786       -1.9895974844        0.3596783306
 H          0.4119075966       -1.9290751909        1.3128777329
 C         -0.7623979807       -3.3633849147        0.2450019294
 C         -0.0794115010       -4.5568363856        0.8404538927
 C         -1.3184971997       -4.0069644030        1.4785734746
 H         -2.2369959798       -4.5686773963        1.3983916488
 H         -1.2200844864       -3.4638731048        2.4076745676
 H         -0.1491962950       -5.5019481066        0.3233801512
 H          0.8616718511       -4.3956276937        1.3441140521
 H         -1.3136540614       -3.4928550516       -0.6788363107
 O         -2.0376099385       -1.3918598987       -1.7201220384
