  62
        -98.94450242
 C         -1.9134116296       -0.8795803703        0.4099682803
 C         -2.1983403998        0.2734066792       -0.3610997905
 C         -3.4809859299        0.9321606091       -0.0786932610
 C         -4.2816371899        0.4657399496        0.8956434693
 C         -5.5969695200        1.0561256396        1.3253309888
 C         -6.7924334999        0.6095084088        0.4726668890
 C         -6.8509745200        1.2117900279       -0.9316965914
 H         -7.8410029999        0.9890734674       -1.3345921513
 H         -6.7641377002        2.2967737979       -0.8643488721
 C         -5.7904910198        0.6668197174       -1.8984818509
 H         -5.3796310396       -0.2640810322       -1.5010729903
 H         -6.2594181097        0.4267511267       -2.8553690608
 C         -4.6405284700        1.6316859275       -2.1872184215
 H         -5.0233878501        2.5132143771       -2.7063962521
 H         -3.9319091298        1.1309720372       -2.8517568711
 C         -3.8758972201        2.0941234885       -0.9400400818
 H         -2.9607490302        2.5956158884       -1.2644932621
 H         -4.4777769003        2.8023350787       -0.3709470223
 H         -6.7831923597       -0.4805955112        0.4018236698
 H         -7.6997339800        0.8997951090        1.0074502988
 H         -5.7641529200        0.7248992102        2.3525866590
 H         -5.5300926903        2.1445616096        1.3186697581
 O         -3.9588306997       -0.6237661799        1.6404834500
 C         -2.7925729896       -1.3288110298        1.4024977505
 O         -2.6468952694       -2.3294163293        2.1324923212
 O         -1.4379190198        0.7567305387       -1.2435038108
 C         -0.6538109994       -1.7160464201        0.2412438709
 C          0.5283514804       -1.0849782794        0.9372367706
 C          1.1896776705       -1.7455982986        1.9653543110
 C          2.2922385503       -1.1741207780        2.5772850607
 C          2.7574611001        0.0648328718        2.1752977499
 C          2.0983988900        0.7343752710        1.1523504995
 C          0.9983227502        0.1575995804        0.5362798998
 H          0.4889285501        0.6840329898       -0.2572246006
 N          2.5752596898        1.9906057408        0.7243150387
 S          4.1745039498        2.0123174608        0.2211524387
 O          5.0362277097        2.0762575617        1.3751836687
 O          4.2788905297        3.1154433102       -0.7076342120
 C          4.3929866802        0.4523205603       -0.6161150402
 C          3.7140214903        0.2537279194       -1.8019464501
 C          3.8105043106       -0.9761681110       -2.4312455493
 C          4.5746619507       -1.9839037205       -1.8630717086
 C          5.2511445506       -1.7681006396       -0.6728341587
 C          5.1592310403       -0.5393331692       -0.0389650495
 H          5.6670227503       -0.3294856684        0.8880150404
 H          5.8451449408       -2.5535924892       -0.2343978082
 H          4.6426696810       -2.9430307708       -2.3518521380
 H          3.2856384506       -1.1438375717       -3.3581840892
 H          3.1296952601        1.0593052690       -2.2176361407
 H          1.9827104398        2.4145432203        0.0242485683
 H          3.6170403300        0.5250877123        2.6353529897
 H          2.7947454004       -1.6987276474        3.3754039411
 H          0.8265323006       -2.7091524485        2.2918605217
 H         -0.8653365893       -2.6700098898        0.7418971915
 C         -0.3157111493       -2.0002565310       -1.2107624689
 C          0.5960427809       -3.1447775110       -1.5301091581
 C         -0.8620714390       -3.2308353016       -1.8664023681
 H         -1.1601462090       -3.1730800323       -2.9025981382
 H         -1.4868448889       -3.8800814313       -1.2699538377
 H          1.3042989410       -3.0284068314       -2.3353220981
 H          0.9616591310       -3.7370352504       -0.7052555377
 H         -0.2366630294       -1.1073307314       -1.8160480695
