  62
        -98.94111276
 C          1.6640272035        1.3560129426        0.3432978443
 C          1.3921233287        0.3264152450       -0.5863956761
 C          2.0486829218       -0.9696800303       -0.3488051836
 C          2.8067989306       -1.1332469983        0.7505405146
 C          3.5304607850       -2.3492200108        1.2907756845
 C          3.7634897437       -3.5747845386        0.4112418443
 C          4.7275925942       -3.3529221555       -0.7533878899
 H          5.7314158730       -3.2011674065       -0.3489050860
 H          4.7456633951       -4.2622781448       -1.3579370532
 C          4.4063504999       -2.1629722001       -1.6536827244
 H          4.4884594036       -1.2373441513       -1.0803884522
 H          5.1650631822       -2.1244744695       -2.4398823449
 C          3.0373652828       -2.2081942331       -2.3294890296
 H          3.0088036346       -1.4010198944       -3.0659648263
 H          2.9223441240       -3.1531706834       -2.8635282344
 C          1.8279072489       -2.0229759960       -1.3954380825
 H          0.9825856544       -1.6800335048       -1.9991891029
 H          1.5292535710       -2.9605910884       -0.9314541273
 H          2.8142425563       -3.9636305627        0.0542913935
 H          4.1965279949       -4.3428026584        1.0581876531
 H          4.4942146229       -1.9842798299        1.6610253576
 H          2.9577558399       -2.6604212952        2.1722149415
 O          2.9981482559       -0.1229144755        1.6510285636
 C          2.4322217310        1.1271515203        1.4804672441
 O          2.6805660479        1.9365508953        2.4001318574
 H         -0.4066709970        1.2776458774        1.8991013300
 C         -1.0451024239        1.6804535286        1.1214428262
 C         -0.4931700444        2.4994925341        0.1434041908
 C         -1.3313902179        3.0109746555       -0.8381222237
 C         -2.6732632399        2.6691050198       -0.8656631244
 C         -3.2003844849        1.7953379681        0.0683062741
 C         -2.3748578246        1.3053053647        1.0707727309
 N         -2.8932987045        0.3290632260        1.9752576631
 S         -2.4025979405       -1.2148131512        1.4856039905
 O         -3.0163846587       -2.1347855585        2.4211457901
 O         -0.9605716181       -1.3113534026        1.3881023172
 C         -3.1652438387       -1.3549385710       -0.1120131524
 C         -4.4752760180       -1.7894421060       -0.1743944125
 C         -5.1013727141       -1.8531704743       -1.4084257594
 C         -4.4111140350       -1.4765604887       -2.5511367907
 C         -3.0978360454       -1.0401781897       -2.4693693603
 C         -2.4627946073       -0.9752553080       -1.2384775576
 H         -1.4437265486       -0.6307648175       -1.1453325245
 H         -2.5581258583       -0.7411731576       -3.3535450733
 H         -4.8988601397       -1.5222654360       -3.5121259772
 H         -6.1226961577       -2.1918242332       -1.4752547040
 H         -4.9668788741       -2.0715984232        0.7421021699
 H         -2.5672695970        0.4673062339        2.9235781458
 H         -4.2314935682        1.4839570669        0.0314613650
 H         -3.3088208263        3.0657561186       -1.6419769812
 H         -0.9271820185        3.6601614271       -1.5974868420
 C          0.9999846681        2.7141625524        0.1831164746
 H          1.2515623204        3.2874793513        1.0872778569
 C          1.5446710944        3.4372549458       -1.0298824623
 C          1.5335911840        4.9348449444       -1.0821185661
 C          2.8274376522        4.2005405438       -0.9028282579
 H          3.5265561930        4.1742972501       -1.7250119599
 H          3.2990806021        4.2178334463        0.0692584329
 H          1.3481258127        5.4169245280       -2.0298919064
 H          1.1294456776        5.4618262530       -0.2311051976
 H          1.3779492262        2.8887150170       -1.9495287399
 O          0.6262651854        0.4779120904       -1.5740593818
