  62
        -98.94104899
 C          1.7415669285       -0.9936542214       -0.3377120444
 C          2.1284334672        0.3625422300       -0.4777172742
 C          3.5755851929        0.6004136672       -0.5978190236
 C          4.4303025356       -0.4362153990       -0.6389093934
 C          5.9266187747       -0.3499646524       -0.7695460763
 C          6.6540134536       -0.1186432661        0.5621076311
 C          6.5094307521        1.2868671294        1.1472996912
 H          6.7740241781        2.0242802330        0.3888256467
 H          7.2389520696        1.3742112153        1.9549117893
 C          5.1149454372        1.6006816502        1.7075243508
 H          5.2134202808        2.0773161931        2.6854954024
 H          4.5649820076        0.6692332656        1.8612608060
 C          4.2754549843        2.5322017530        0.8327769672
 H          4.7511239667        3.5141748710        0.7812778228
 H          3.2974655264        2.6586154875        1.3052740928
 C          4.0492940929        2.0223960039       -0.5967628725
 H          4.9642277240        2.1211002860       -1.1805296967
 H          3.2693897397        2.6324128686       -1.0595313368
 H          7.7158711342       -0.3097288890        0.3909699069
 H          6.2971532190       -0.8534785264        1.2875565835
 H          6.2584099832       -1.3052991339       -1.1818100120
 H          6.1890399177        0.4417971052       -1.4716863334
 O          4.0104399373       -1.7282364211       -0.5849707262
 C          2.6703090923       -2.0357937018       -0.4149559507
 O          2.4324070219       -3.2588314479       -0.3619658430
 H         -1.5809049860        0.5582759205        0.4066903033
 C         -1.5277206727        0.2943457200       -0.6355073340
 C         -0.6107761366       -0.6452370031       -1.0780183817
 C         -0.5253453423       -0.9047323549       -2.4435036703
 C         -1.3326645888       -0.2342334254       -3.3414574444
 C         -2.2582816268        0.6929882922       -2.8952520087
 C         -2.3482557677        0.9616806873       -1.5349695158
 N         -3.2722730206        1.8972811597       -1.0533120009
 S         -3.9693506771        1.7174075434        0.4483681027
 O         -5.2137048799        2.4521108037        0.3538918106
 O         -3.0714068376        2.1450109414        1.4910644231
 C         -4.3101678304       -0.0271557511        0.6169661404
 C         -5.0300671350       -0.6613193187       -0.3761964967
 C         -5.2965844120       -2.0149764962       -0.2509804322
 C         -4.8446037418       -2.7087580752        0.8611540753
 C         -4.1309984576       -2.0565388368        1.8543460665
 C         -3.8592910010       -0.7029876541        1.7321224948
 H         -3.3019682775       -0.1579954095        2.4774764940
 H         -3.7815448862       -2.5965616326        2.7201442133
 H         -5.0500556590       -3.7633231302        0.9558296579
 H         -5.8534632730       -2.5250537399       -1.0203018947
 H         -5.3752103186       -0.0947621005       -1.2254409205
 H         -3.9087129457        2.2769266653       -1.7372530810
 H         -2.8923710997        1.2168976198       -3.5941255307
 H         -1.2480509650       -0.4393398520       -4.3980318273
 H          0.1955264673       -1.6323788194       -2.7913463863
 C          0.2922033520       -1.4028041972       -0.1376746220
 H          0.2563928512       -2.4669233164       -0.4236028310
 C         -0.1748658864       -1.3262264638        1.3086184630
 C          0.7638783749       -1.6062951627        2.4426885537
 C          0.2397560970       -0.2194882644        2.2286333987
 H         -0.4891364908        0.1750068511        2.9222285135
 H          0.9089967031        0.5318421178        1.8395756355
 H          1.7974311772       -1.8060959105        2.1990835663
 H          0.3975822954       -2.1729719862        3.2852725391
 H         -1.1894894193       -1.6969358299        1.4205570475
 O          1.3292989262        1.3331280065       -0.5031948546
