  62
        -98.93740326
 C         -2.1714994321       -1.2997338482       -0.1159300879
 C         -2.5987758173       -0.1861246282       -0.8763142598
 C         -3.9904127683        0.2503607255       -0.6635733689
 C         -4.7689255592       -0.4164919946        0.2053985937
 C         -6.2185675136       -0.1733692270        0.5431819811
 C         -6.6624060627        1.2817881851        0.7491191762
 C         -5.5932956133        2.2100624399        1.3438171594
 H         -6.0205270073        2.7432281962        2.1952175304
 H         -4.7515082746        1.6237429441        1.7163088682
 C         -5.0853517729        3.2529467529        0.3450957378
 H         -4.6330637486        4.0788822958        0.8994233707
 H         -5.9391052779        3.6569274752       -0.2035586736
 C         -4.0406175863        2.7540450468       -0.6527600340
 H         -3.0945481940        2.5655116034       -0.1371504905
 H         -3.8558594974        3.5541654829       -1.3738176784
 C         -4.4151691649        1.4756025694       -1.4203718436
 H         -5.4756306279        1.4554310715       -1.6597148002
 H         -3.8460566212        1.4668069168       -2.3539716654
 H         -7.5302232811        1.2561163020        1.4103038835
 H         -7.0032702776        1.6966666434       -0.1984660809
 H         -6.3957004482       -0.7429770345        1.4585884217
 H         -6.8313518346       -0.6264020094       -0.2415198326
 O         -4.3155105108       -1.4903810139        0.9123037660
 C         -3.0160756572       -1.9470710287        0.7851140019
 O         -2.7376536544       -2.9198274069        1.5149718539
 O         -1.8652133590        0.4130889900       -1.7049418715
 C         -0.7484162178       -1.8177285039       -0.2403132910
 C          0.2049486241       -0.7300592185        0.1904630668
 C          0.1750193851       -0.3098312062        1.5181069704
 C          1.0062680084        0.7013110805        1.9598186476
 C          1.8853982210        1.3185651993        1.0865253900
 C          1.9249198535        0.9051210967       -0.2376974544
 C          1.0976534631       -0.1220375376       -0.6765913321
 H          1.1366789433       -0.4247577552       -1.7107167222
 N          2.8153539079        1.5257090648       -1.1289253702
 S          4.3939799231        1.7655951845       -0.6346181767
 O          4.4660055074        2.9130336993        0.2350970045
 O          5.1648950644        1.8472249102       -1.8549788886
 C          4.8144509574        0.2882628420        0.2731933187
 C          5.0675644607        0.3562628526        1.6277096041
 C          5.3490557091       -0.8130553046        2.3163755284
 C          5.3683182077       -2.0239233837        1.6423508402
 C          5.1151253740       -2.0754755758        0.2798908680
 C          4.8332091798       -0.9099886294       -0.4132651852
 H          4.6389750321       -0.9138379554       -1.4737204886
 H          5.1330625013       -3.0185763752       -0.2423828991
 H          5.5831195435       -2.9336143698        2.1806438722
 H          5.5484920739       -0.7759516088        3.3752270672
 H          5.0427936904        1.3180014224        2.1134275964
 H          2.7691230471        1.1705548105       -2.0721852193
 H          2.5290193846        2.1212210613        1.4078571299
 H          0.9677768237        1.0174730539        2.9912827629
 H         -0.5191905451       -0.7864409689        2.1972506266
 H         -0.6664155192       -2.6449954979        0.4782282120
 C         -0.4898708162       -2.3544668173       -1.6318884263
 C          0.6312478163       -3.3229271860       -1.8573394953
 C         -0.7903945348       -3.7928312465       -1.9222047462
 H         -1.2079610361       -4.0472022829       -2.8849290407
 H         -1.1705989721       -4.3953376202       -1.1101121573
 H          1.1917779230       -3.2611879634       -2.7778873466
 H          1.2191620605       -3.6106313735       -0.9991532698
 H         -0.7124925273       -1.6350404446       -2.4110668621
