  62
        -98.94664876
 C         -1.4873040925       -1.6250790702       -0.1195711151
 C         -1.5889339183       -0.5365616282       -1.0215937843
 C         -2.8842080353        0.1590636025       -1.0403261962
 C         -3.8986728967       -0.2746191777       -0.2723487337
 C         -5.2860290784        0.3055098778       -0.2176406063
 C         -5.4289383406        1.5019479612        0.7324349027
 C         -4.7741625959        2.7961839689        0.2482012853
 H         -5.1165880829        3.0203756286       -0.7625770892
 H         -5.1282446734        3.5990583065        0.8979871281
 C         -3.2392714229        2.7767531073        0.2800586883
 H         -2.8946815899        1.9608022991        0.9202601336
 H         -2.8672208592        3.7022585071        0.7256936938
 C         -2.5725302217        2.6415726632       -1.0890223687
 H         -1.4908983378        2.6032260232       -0.9318387244
 H         -2.7920317165        3.5266787665       -1.6912778712
 C         -2.9971810070        1.3959060133       -1.8789320804
 H         -4.0155821811        1.5153557246       -2.2495439568
 H         -2.3236500329        1.2855577415       -2.7322896053
 H         -6.4973037994        1.6874286909        0.8654701212
 H         -5.0146401280        1.2276072788        1.7054053831
 H         -5.6000522402        0.5969956553       -1.2203075160
 H         -5.9421119519       -0.4935562632        0.1346831801
 O         -3.7772243199       -1.3496631341        0.5510333143
 C         -2.5719361203       -2.0193636246        0.6705886926
 O         -2.5931714569       -2.9573938150        1.4941093647
 H          0.4721051540        0.1922057057        0.3589755815
 C          0.9625461315       -0.4406073270        1.0798527355
 C          0.7014293994       -1.8025475099        1.1046583860
 C          1.3283549010       -2.5855174422        2.0679488391
 C          2.1957149439       -2.0171924562        2.9826858383
 C          2.4639155245       -0.6610550485        2.9467008539
 C          1.8386488113        0.1330050511        1.9914630468
 N          2.0778019009        1.5122818730        1.9503765077
 S          2.1098931068        2.3392520521        0.4958502594
 O          2.8547509770        3.5437210447        0.8034374853
 O          0.7726229675        2.5409753792        0.0043129479
 C          3.0727977719        1.3125676299       -0.5983102433
 C          4.4205554306        1.1887912365       -0.3180322936
 C          5.2025129220        0.3761973545       -1.1209146322
 C          4.6251448846       -0.2974913720       -2.1870814907
 C          3.2737518761       -0.1570150997       -2.4575307593
 C          2.4832972297        0.6550621209       -1.6572836133
 H          1.4253624117        0.7680161004       -1.8373294559
 H          2.8220023925       -0.6783273034       -3.2869031046
 H          5.2318133782       -0.9337226679       -2.8121731407
 H          6.2552174523        0.2689789035       -0.9146152755
 H          4.8341233388        1.7410296371        0.5102256529
 H          2.7959335155        1.8380857343        2.5799984150
 H          3.1405603542       -0.2139638925        3.6587785272
 H          2.6704791833       -2.6352425830        3.7292756055
 H          1.1174283225       -3.6436714894        2.1076594961
 C         -0.2215095373       -2.4386851300        0.0901039223
 H         -0.5531535422       -3.4011344568        0.5044582484
 C          0.5504695180       -2.7095099542       -1.1880736232
 C          1.4376212936       -3.9131866129       -1.2722350450
 C          0.1609069938       -3.8660262921       -2.0561870688
 H          0.2103329467       -3.7443192453       -3.1276689590
 H         -0.6636064299       -4.4819508352       -1.7265937751
 H          1.4792047708       -4.5703067994       -0.4171994391
 H          2.3720729960       -3.8244741279       -1.8041855285
 H          0.8801753515       -1.8060930736       -1.6816991130
 O         -0.6703976602       -0.1491068420       -1.7902842541
