  62
        -98.94591854
 C         -1.2906041676       -1.4230880944        0.6165004473
 C         -2.3653936290       -1.3145270069       -0.3005083442
 C         -3.3681496543       -0.2807388426        0.0040073250
 C         -3.2211061318        0.4885433120        1.0968038953
 C         -4.1459337876        1.6012441509        1.4970364148
 C         -3.7127176514        2.9477082265        0.8995633703
 C         -3.4019932072        2.8915351062       -0.5959543656
 H         -3.1327093160        3.9026123751       -0.9085576070
 H         -2.5284011468        2.2562927515       -0.7581480198
 C         -4.5610672380        2.3846386426       -1.4650582287
 H         -4.6531491128        3.0324942374       -2.3392372227
 H         -5.4984162839        2.4534742424       -0.9116485274
 C         -4.3841601297        0.9571404852       -1.9850962564
 H         -5.1387569868        0.7804188522       -2.7561549073
 H         -3.4037258691        0.8566465123       -2.4571688753
 C         -4.5317680960       -0.1546926526       -0.9389875861
 H         -5.4625089558       -0.0173281431       -0.3846535683
 H         -4.5879300593       -1.1076251645       -1.4730162926
 H         -2.8191336711        3.2914052851        1.4258854914
 H         -4.5075079251        3.6737394818        1.0804948287
 H         -5.1550030004        1.3573679736        1.1696423385
 H         -4.1379024218        1.6775092715        2.5858955272
 O         -2.1769088857        0.3555729473        1.9552460053
 C         -1.1970639657       -0.5988348254        1.7410776157
 O         -0.3068063895       -0.6169437117        2.6159642101
 H          2.2218353863       -1.2589559635        0.8395069561
 C          1.9893670052       -1.3505002321       -0.2110006657
 C          0.8009747195       -1.9483245004       -0.6085469721
 C          0.5299998745       -2.0585481425       -1.9685300305
 C          1.4337676904       -1.5835967493       -2.9011890690
 C          2.6129698424       -0.9797129565       -2.5014808098
 C          2.8906355946       -0.8588945240       -1.1452023383
 N          4.0816329478       -0.2547957017       -0.7085723075
 S          4.0372335835        0.8227257609        0.5713497749
 O          5.2585298637        1.5869750781        0.4342756496
 O          3.8737432278        0.1120058053        1.8127021192
 C          2.6321507436        1.8662787730        0.2326877106
 C          1.4462737999        1.6862626401        0.9131514551
 C          0.3595910021        2.4799905225        0.5799394080
 C          0.4732003907        3.4314645354       -0.4205032087
 C          1.6750720708        3.6038173523       -1.0911915193
 C          2.7641556338        2.8134066935       -0.7652888851
 H          3.7187439394        2.9257688601       -1.2534251302
 H          1.7626928183        4.3486717767       -1.8655784949
 H         -0.3789289483        4.0420426027       -0.6746203468
 H         -0.5697691709        2.3378283628        1.1089924343
 H          1.3735336098        0.9388561101        1.6879686087
 H          4.6665973773        0.0948954950       -1.4539535433
 H          3.3158580327       -0.6073990839       -3.2310476163
 H          1.2137030121       -1.6775639701       -3.9537495560
 H         -0.4024864044       -2.4962033979       -2.2866205397
 C         -0.1657678051       -2.4339418694        0.4455583711
 H          0.3706639732       -2.4438879273        1.4043328126
 C         -0.6665585238       -3.8371266475        0.1664552456
 C          0.2639975949       -4.9911878637        0.3807433710
 C         -0.8889833328       -4.7741736657        1.3133672757
 H         -1.7259948576       -5.4547712787        1.2681133042
 H         -0.6787707496       -4.4077878064        2.3081848640
 H          0.2210075662       -5.8230910336       -0.3052505102
 H          1.2570865564       -4.7706308998        0.7435162707
 H         -1.3619156735       -3.8956271778       -0.6598037115
 O         -2.5078027829       -2.0377872226       -1.3198900866
