  62
        -98.93211512
 C          2.3281937535       -0.2006808549       -0.5849425039
 C          3.3296846504       -0.6743488228        0.2944184807
 C          4.4282987048        0.2617160869        0.6064525097
 C          4.4223767705        1.4998306616        0.0805266325
 C          5.3745898375        2.6645932548        0.2554894922
 C          6.7607159534        2.4586754383        0.8612622573
 C          7.7152861190        1.6233597843        0.0088980656
 H          7.9748527777        2.1958033517       -0.8852416034
 H          8.6327044300        1.4654029896        0.5802155360
 C          7.1772652241        0.2704824405       -0.4503648047
 H          6.3218715100        0.4210254776       -1.1121332326
 H          7.9583028342       -0.2165802560       -1.0406008983
 C          6.7755224357       -0.6879224809        0.6691028045
 H          7.6098005441       -0.8149294869        1.3617162704
 H          6.5698582338       -1.6594166900        0.2116711412
 C          5.5275185321       -0.2827537195        1.4728895017
 H          5.7759162680        0.4206191155        2.2639931807
 H          5.1262960667       -1.1820906368        1.9489821752
 H          6.6776787489        2.0403132520        1.8600063573
 H          7.2018256422        3.4531961193        0.9710527245
 H          5.4820859238        3.1105496300       -0.7384112319
 H          4.8366938675        3.3987827963        0.8655511931
 O          3.4126184704        1.9257214955       -0.7343282684
 C          2.3638398024        1.1012883295       -1.0897663143
 O          1.5354196405        1.6324383296       -1.8573621390
 O          3.3335073913       -1.8214905959        0.8132900685
 C          1.1422759627       -1.0409155428       -1.0333146282
 C          0.0635866898       -1.0404932063        0.0243137331
 C          0.2194867928       -1.7181890305        1.2285851426
 C         -0.7866544997       -1.6968872919        2.1773969007
 C         -1.9624958658       -1.0040239536        1.9494781019
 C         -2.1268510276       -0.3209929901        0.7520206546
 C         -1.1177913979       -0.3489541685       -0.2027427626
 H         -1.2418372181        0.1936233571       -1.1307702625
 N         -3.3089187440        0.4060320147        0.5218055996
 S         -4.7648638845       -0.3362739303        0.9536599879
 O         -4.9885513380       -0.1162894796        2.3606429847
 O         -4.7622143484       -1.7164605529        0.5236743972
 C         -5.9348168611        0.6096538929       -0.0007270978
 C         -6.4001340308        1.8076070427        0.5072617467
 C         -7.2932804112        2.5520490230       -0.2468095846
 C         -7.7033111615        2.0894333888       -1.4884536241
 C         -7.2283038041        0.8845650327       -1.9843816656
 C         -6.3339575799        0.1355579108       -1.2360946932
 H         -5.9470061611       -0.8113313823       -1.5773422783
 H         -7.5512909925        0.5261894333       -2.9485505869
 H         -8.3999613535        2.6699022330       -2.0724253934
 H         -7.6670917300        3.4880022308        0.1358684157
 H         -6.0618531408        2.1224695605        1.4806119106
 H         -3.3503618401        0.7812137643       -0.4158981713
 H         -2.7555376428       -0.9863986681        2.6799489451
 H         -0.6546334303       -2.2269263232        3.1089546846
 H          1.1418236580       -2.2434564048        1.4214634456
 H          0.7395448624       -0.5272605445       -1.9168202203
 C          1.5251878868       -2.4507755947       -1.4377676516
 C          0.5889810251       -3.2311770332       -2.3085701421
 C          1.8876418036       -2.7297423544       -2.8639080064
 H          2.6735691444       -3.4420007723       -3.0653640094
 H          1.8601907855       -1.9025391248       -3.5586128625
 H          0.4796767857       -4.2894819087       -2.1281894096
 H         -0.3210886079       -2.7445319683       -2.6262082625
 H          2.0698081739       -2.9884323379       -0.6738804476
