  62
        -98.93428543
 C          1.5935394430        0.7079151707       -0.3685933950
 C          2.8892822341        1.0586234461       -0.8236840181
 C          4.0228204849        0.6571349066        0.0257879718
 C          3.7807832056        0.0289452460        1.1885987252
 C          4.7681015457       -0.4352790138        2.2302179042
 C          6.0580890324       -1.1038915880        1.7367099753
 C          5.9090310464       -1.9329640230        0.4526039647
 H          6.3340020521       -2.9246065299        0.6188120374
 H          4.8526227592       -2.0673120842        0.2140797907
 C          6.6274298636       -1.3103337810       -0.7469274437
 H          7.6052877617       -0.9493355284       -0.4207306126
 H          6.7994768756       -2.0872471535       -1.4958283816
 C          5.8806357984       -0.1713889959       -1.4403450959
 H          5.0106064796       -0.5675186630       -1.9714100696
 H          6.5456037693        0.2571269757       -2.1941606212
 C          5.3898368024        0.9569721038       -0.5186750366
 H          6.1052690731        1.1566668907        0.2753782065
 H          5.2806527651        1.8609740630       -1.1242573153
 H          6.8259064141       -0.3469557821        1.5830868810
 H          6.4091892642       -1.7462400143        2.5461604972
 H          5.0274054007        0.4225366611        2.8576887582
 H          4.2102774134       -1.1344194050        2.8578450862
 O          2.5164280320       -0.2498003596        1.6106162792
 C          1.3937710446        0.0757177487        0.8590583284
 O          0.3210283338       -0.2490830826        1.3975858455
 H         -2.1272709759        0.2876000357       -0.5681038452
 C         -1.8721088683        1.2435257008       -0.1441154533
 C         -0.6288309470        1.8020646923       -0.3890859269
 C         -0.3215131329        3.0314923984        0.1883981710
 C         -1.2372637174        3.6811427725        0.9924574718
 C         -2.4796697933        3.1210685193        1.2337173884
 C         -2.7938183636        1.8922809497        0.6659587588
 N         -4.0237257816        1.2814782998        0.9307466187
 S         -4.7354936954        0.2064689664       -0.1192479106
 O         -4.5861079006        0.6220699062       -1.4956354351
 O         -6.0999007684        0.0941488088        0.3530213329
 C         -3.9062685282       -1.3488757033        0.1383463268
 C         -3.3121802223       -1.6275818802        1.3521747597
 C         -2.7072394661       -2.8612301863        1.5316275606
 C         -2.7144482649       -3.7936727418        0.5062792955
 C         -3.3212837761       -3.5011089341       -0.7053505242
 C         -3.9223617976       -2.2669215228       -0.8935737621
 H         -4.3920572020       -1.9922570261       -1.8249388598
 H         -3.3236695128       -4.2268083956       -1.5032078427
 H         -2.2409101170       -4.7520919255        0.6502382831
 H         -2.2256819132       -3.0854122561        2.4697448843
 H         -3.3067484059       -0.8813666159        2.1288188755
 H         -4.6855263833        1.8160929959        1.4713764232
 H         -3.1959106675        3.6247116643        1.8648529442
 H         -0.9852874425        4.6332674722        1.4349677632
 H          0.6517256665        3.4662237007        0.0042418822
 C          0.4129873764        1.1144241582       -1.2324795399
 H          0.8305522839        1.8599517821       -1.9300688321
 C         -0.1553088174       -0.0074939317       -2.0879521675
 C          0.7334057443       -1.0894280114       -2.6224285241
 C         -0.3014070653       -1.4126975523       -1.5888175056
 H         -1.1747103696       -1.9714078674       -1.8928130286
 H          0.0176549494       -1.6244525923       -0.5806938014
 H          1.7704705784       -1.0749948929       -2.3198245993
 H          0.5780071217       -1.4306344632       -3.6347751322
 H         -0.9347464554        0.3512334149       -2.7546822673
 O          3.0922244926        1.6951631273       -1.8920673563
