  62
        -98.94241749
 C         -1.0217159180       -1.3680597504        0.6551846825
 C         -1.6106203701       -1.0127127524       -0.5851395276
 C         -2.4726419459        0.1840482141       -0.5618972955
 C         -2.6529594975        0.8574641883        0.5873710124
 C         -3.5357078853        2.0597934598        0.7527006294
 C         -4.9613782344        1.6532006178        1.1511624607
 C         -5.5580370018        0.5518253313        0.2750193411
 H         -4.9935412645       -0.3708564786        0.4276104958
 H         -6.5748957147        0.3693239739        0.6290516797
 C         -5.5907942429        0.8806806468       -1.2240670043
 H         -5.4780871715        1.9554950132       -1.3710574707
 H         -6.5673040664        0.5993965669       -1.6239138840
 C         -4.5401661217        0.1447909632       -2.0582516797
 H         -4.5883450383       -0.9267810964       -1.8480808631
 H         -4.7864283880        0.2815188073       -3.1146976545
 C         -3.0909628148        0.6081900233       -1.8636829604
 H         -2.4813642920        0.1490075983       -2.6482416437
 H         -3.0295083316        1.6924823195       -1.9833194486
 H         -5.5973728021        2.5391188921        1.1078932377
 H         -4.9438019457        1.2965194241        2.1834791552
 H         -3.1153227345        2.6915957061        1.5369710794
 H         -3.5522337001        2.6212757907       -0.1796142218
 O         -2.0757962731        0.4839383465        1.7580807606
 C         -1.2451320187       -0.6239860208        1.8164638957
 O         -0.7739498324       -0.8463229850        2.9490836203
 H          0.9701663807       -0.8762905223       -1.0707926958
 C          1.7139479914       -1.1991079276       -0.3586847266
 C          1.3646375116       -2.0575219327        0.6748227827
 C          2.3503358091       -2.4661726236        1.5659270255
 C          3.6556292408       -2.0320543341        1.4200086154
 C          3.9973526591       -1.1674366179        0.3960216139
 C          3.0180339464       -0.7456963151       -0.4960136920
 N          3.3317045681        0.1427792416       -1.5404937529
 S          2.3640765213        1.4929486152       -1.7535651835
 O          1.1067513975        1.1281791969       -2.3498773295
 O          3.1898863267        2.4062921964       -2.5143740412
 C          2.1213864617        2.1246761360       -0.1043421784
 C          3.1624338203        2.8055124419        0.4966984151
 C          3.0111592523        3.2434584896        1.8018560578
 C          1.8313875464        2.9850164081        2.4837518540
 C          0.7946322520        2.3035825483        1.8656572056
 C          0.9390883406        1.8678828014        0.5578651499
 H          0.1529510187        1.3351495103        0.0446758109
 H         -0.1193977757        2.0904528567        2.3976985891
 H          1.7142754752        3.3165055450        3.5033627838
 H          3.8116719996        3.7793163465        2.2857838873
 H          4.0589200397        2.9940569204       -0.0714443252
 H          4.3071933620        0.4037563219       -1.5776840743
 H          5.0128875318       -0.8193871320        0.2850365550
 H          4.4118968524       -2.3597327190        2.1165256136
 H          2.0836254571       -3.1185240659        2.3841775099
 C         -0.0592746714       -2.5316013575        0.8287316902
 H         -0.1816815647       -2.8593201015        1.8739778447
 C         -0.3766821511       -3.7279307997       -0.0569315790
 C          0.4281624850       -4.0945994245       -1.2633903746
 C          0.5071181880       -4.9400242330       -0.0298900125
 H          0.0447782178       -5.9154051527       -0.0402578112
 H          1.4132297889       -4.8846727587        0.5539864591
 H         -0.1047191099       -4.4687956051       -2.1241514445
 H          1.2742777156       -3.4751497206       -1.5181635173
 H         -1.4448179247       -3.9074620930       -0.1227479364
 O         -1.4466854551       -1.6424040051       -1.6601704238
