  62
        -98.94439580
 C         -1.9566885599       -0.8730347698        0.0678744502
 C         -2.4099081498        0.4588631303        0.2248713299
 C         -3.8280854998        0.6083588305        0.5777457698
 C         -4.5932459899       -0.4830840194        0.7599637700
 C         -6.0498020600       -0.4913306692        1.1376575599
 C         -7.0037603899       -0.3217017094       -0.0527823402
 C         -7.0515285797        1.0836898705       -0.6537036306
 H         -7.9102796596        1.1151044104       -1.3272361806
 H         -7.2326800197        1.8107843107        0.1384878793
 C         -5.7939451496        1.4795348602       -1.4400884806
 H         -5.2176526797        0.5835561401       -1.6822247703
 H         -6.0857587895        1.9373199900       -2.3880505607
 C         -4.8823122695        2.4729759403       -0.7194460307
 H         -5.4047853695        3.4235742004       -0.5906151610
 H         -4.0064453795        2.6533336701       -1.3482072907
 C         -4.3888339497        1.9962650405        0.6529682694
 H         -3.5848902996        2.6611956505        0.9786511593
 H         -5.1984685897        2.0425592008        1.3809849394
 H         -6.7265716299       -1.0398409396       -0.8279052500
 H         -8.0069663299       -0.5787407492        0.2948799798
 H         -6.2455537901       -1.4614465991        1.5994094901
 H         -6.2423320899        0.2894489110        1.8739207997
 O         -4.1075062301       -1.7471024995        0.6359778603
 C         -2.7909267501       -1.9728485897        0.2688041604
 O         -2.4851041702       -3.1782361598        0.1659526207
 H          1.5120708903        0.7136910796       -0.7182295599
 C          1.4023133002        0.3885131099        0.3019679802
 C          0.4267176701       -0.5294963799        0.6544859703
 C          0.3093708299       -0.8987981296        1.9928871304
 C          1.1375391399       -0.3510354895        2.9521639603
 C          2.1087735200        0.5692662303        2.5966082802
 C          2.2366119002        0.9432117800        1.2648728101
 N          3.1971819703        1.8934997598        0.8851838700
 S          4.1365820504        1.6887437894       -0.4802593099
 O          5.1879075204        2.6721620594       -0.3435911201
 O          3.3288443004        1.7775379892       -1.6689337400
 C          4.8191419302        0.0499717094       -0.3106085595
 C          5.9591291701       -0.1088574805        0.4535318806
 C          6.4669826200       -1.3833335005        0.6445617609
 C          5.8234836499       -2.4738244606        0.0788693211
 C          4.6800440800       -2.2975322007       -0.6847084990
 C          4.1696381901       -1.0242643807       -0.8840227993
 H          3.2870522902       -0.8495309107       -1.4764824494
 H          4.1816229399       -3.1460421207       -1.1258433988
 H          6.2164115098       -3.4668153606        0.2305121514
 H          7.3591506499       -1.5233105005        1.2334063910
 H          6.4336213902        0.7668255895        0.8659981204
 H          3.7497500103        2.2555976500        1.6483147799
 H          2.7521155500        1.0051492705        3.3458279001
 H          1.0294400098       -0.6426234492        3.9860150504
 H         -0.4523973102       -1.6156097495        2.2690575405
 C         -0.5205960399       -1.1453401001       -0.3455430396
 H         -0.3978131300       -2.2374576801       -0.3056545393
 C         -0.2957884198       -0.6830481504       -1.7696657797
 C          0.7217797202       -1.3659937307       -2.6312071495
 C         -0.7400188998       -1.5630519306       -2.8975851795
 H         -1.1750350497       -1.1012331408       -3.7712632797
 H         -1.1836435099       -2.5137931305       -2.6389870293
 H          1.2967924403       -0.7676304509       -3.3228006496
 H          1.2643630901       -2.1936376107       -2.1992046992
 H         -0.4342223397        0.3852972096       -1.8929790599
 O         -1.6760370297        1.4707664501        0.0795576397
