  62
        -98.93681172
 C          2.2767632202        0.5894048192       -0.0260853814
 C          3.2098535102        0.2393419104        0.9856117390
 C          4.1689330801       -0.8308172001        0.6714135902
 C          4.1149978099       -1.4259665116       -0.5319638190
 C          4.9612943597       -2.5554146324       -1.0637543976
 C          6.4664532998       -2.5117802622       -0.7679451878
 C          7.0768391899       -1.1035390422       -0.7162115897
 H          7.9535645299       -1.0726117331       -1.3658388698
 H          6.3631160500       -0.3716004726       -1.0983613406
 C          7.5205752701       -0.6967197605        0.6910284697
 H          8.0239412501       -1.5458206099        1.1584549308
 H          8.2514487502        0.1113674694        0.6087128286
 C          6.4059335703       -0.2059336292        1.6141455692
 H          6.8330304504       -0.0606936179        2.6092815590
 H          6.0466648403        0.7694203705        1.2749817780
 C          5.1866764802       -1.1349748689        1.7329585005
 H          4.6972825503       -0.9260367176        2.6879770003
 H          5.4844093900       -2.1804741689        1.7169550018
 H          6.6678669598       -3.0205970610        0.1735841228
 H          6.9577539796       -3.0931263832       -1.5500768172
 H          4.8003241996       -2.5458642137       -2.1445432276
 H          4.5494783997       -3.4957909419       -0.6858773464
 O          3.1963125099       -1.0690436327       -1.4715207494
 C          2.2666157000       -0.0636983123       -1.2570323305
 O          1.5161114399        0.1266822765       -2.2369536707
 O          3.2393085504        0.8025065918        2.1115429683
 C          1.3166625104        1.7207376398        0.3001063373
 C         -0.0597613597        1.2195475604        0.6684201181
 C         -0.5864280195        1.4581669921        1.9324391578
 C         -1.8614073295        1.0293839026        2.2575737685
 C         -2.6350598297        0.3530529915        1.3316816694
 C         -2.1167235199        0.1055840199        0.0672317297
 C         -0.8401435998        0.5413444093       -0.2573384910
 H         -0.4405570900        0.3421049080       -1.2409477008
 N         -2.8901244200       -0.5990803812       -0.8754699394
 S         -4.4018716200        0.0316296685       -1.2539820500
 O         -4.7106826502       -0.4772696732       -2.5723802593
 O         -4.4294051298        1.4678186387       -1.0962910918
 C         -5.4926375700       -0.7294938899       -0.0697937189
 C         -6.2410986998        0.0584397513        0.7826925201
 C         -7.0887135998       -0.5557231175        1.6916026210
 C         -7.1731348399       -1.9390762974        1.7307103128
 C         -6.4169722501       -2.7160311486        0.8655116637
 C         -5.5683379701       -2.1083786499       -0.0460029272
 H         -4.9673990303       -2.6739926508       -0.7384840365
 H         -6.4860305802       -3.7914438486        0.8983398750
 H         -7.8325820899       -2.4148347865        2.4393018334
 H         -7.6779281596        0.0463039834        2.3644938503
 H         -6.1383441397        1.1299084712        0.7186427188
 H         -2.3808482501       -0.8067862024       -1.7232760191
 H         -3.6279496697        0.0147673820        1.5791344299
 H         -2.2570173694        1.2225877839        3.2429138783
 H          0.0155352606        1.9768882529        2.6642639071
 H          1.7418052805        2.2035159708        1.1904300466
 C          1.2226657004        2.7563250884       -0.8047671740
 C          0.7462209706        4.1363366089       -0.4691608757
 C          2.1846795105        3.9043345182       -0.8204133456
 H          2.5496381904        4.2575416270       -1.7732011461
 H          2.9167131506        3.9529745892       -0.0273745857
 H          0.1170823205        4.6497928280       -1.1800862963
 H          0.5032360207        4.3440419202        0.5618300340
 H          0.9290200702        2.3416700272       -1.7607013635
