  62
        -98.93877291
 C         -1.8647791200       -0.6569983304        0.2774415090
 C         -2.2252747698        0.6008542896       -0.2723646313
 C         -3.6142729897        0.7466535596       -0.7245512116
 C         -4.4487985997       -0.3031824703       -0.6215469217
 C         -5.9029906696       -0.2846731603       -0.9922215620
 C         -6.7769648699        0.0984231799        0.2101996077
 C         -6.2986514300        1.3494852100        0.9471387377
 H         -7.0071756402        1.5413770501        1.7559047575
 H         -5.3312013501        1.1419534000        1.4101572979
 C         -6.1792026297        2.5995805299        0.0641916175
 H         -6.7513933095        2.4607024798       -0.8537851626
 H         -6.6193602998        3.4461801999        0.5953469573
 C         -4.7432557696        2.9925866097       -0.2883443722
 H         -4.1424314098        3.0407905298        0.6232790080
 H         -4.7625732995        3.9963848697       -0.7209718923
 C         -4.0267431294        2.0769722596       -1.2890596319
 H         -4.6495175192        1.9426923495       -2.1758396220
 H         -3.1002024893        2.5738577795       -1.5908184517
 H         -7.7998843498        0.2485480899       -0.1399476225
 H         -6.7784416701       -0.7351908500        0.9163709278
 H         -6.0559803294        0.4215540396       -1.8059647522
 H         -6.1845011496       -1.2829763803       -1.3314661420
 O         -4.0649325499       -1.5011084003       -0.1168643714
 C         -2.7719582800       -1.7153552303        0.3525957989
 O         -2.5894285002       -2.8653698102        0.7893200591
 H          2.0142192501        0.0984217594        0.1335770398
 C          1.7371761902       -0.7605335106       -0.4575727302
 C          0.4878027701       -1.3375447306       -0.2841151604
 C          0.1364113603       -2.4232544106       -1.0790845504
 C          1.0230097104       -2.9169079508       -2.0190707901
 C          2.2807800505       -2.3584956209       -2.1656724899
 C          2.6425303204       -1.2748571808       -1.3748307399
 N          3.9083665204       -0.6829871109       -1.4864102497
 S          4.7177809401       -0.2313915108       -0.0882766096
 O          6.1167786902       -0.2435539709       -0.4572042592
 O          4.3424876698       -1.0668944506        1.0274855205
 C          4.2104403102        1.4502527693        0.1960191501
 C          4.4033259105        2.3710962292       -0.8146692400
 C          4.0253084405        3.6867260992       -0.6015749302
 C          3.4654642102        4.0574367894        0.6118767196
 C          3.2816172099        3.1216514095        1.6178686797
 C          3.6584769399        1.8040640595        1.4111061499
 H          3.5281113097        1.0440326996        2.1659092900
 H          2.8443108597        3.4106907397        2.5601939195
 H          3.1693321502        5.0815750094        0.7754697294
 H          4.1656628607        4.4184621191       -1.3808076003
 H          4.8444796607        2.0453660690       -1.7418730298
 H          4.5266856506       -1.1252004910       -2.1509873895
 H          2.9773228507       -2.7580521810       -2.8871932797
 H          0.7375759005       -3.7582904409       -2.6327192400
 H         -0.8312572298       -2.8829744006       -0.9460732205
 C         -0.4364686101       -0.7886771304        0.7722566993
 H         -0.1156210301        0.2465200596        0.9728051093
 C         -0.3194423404       -1.5533551702        2.0838788394
 C          0.1901059995       -2.9560602102        2.1826652697
 C          1.0237826094       -1.8228815502        2.6968528798
 H          1.1319887292       -1.7074112801        3.7651387498
 H          1.9084173296       -1.5582107303        2.1349632500
 H         -0.2922849807       -3.6166509501        2.8867514097
 H          0.5031625697       -3.4482218504        1.2754080699
 H         -1.1178388406       -1.2890943501        2.7710267592
 O         -1.4172575097        1.5633591195       -0.3706056612
