  62
        -98.94282485
 C         -1.1683341121       -1.6879580275        0.2007918905
 C         -1.6052662716       -0.8134181369        1.2208079523
 C         -2.8224433927       -0.0313533977        0.9452141068
 C         -3.4242731529       -0.1663277482       -0.2490770053
 C         -4.6236864830        0.5810776095       -0.7629036943
 C         -4.1862302648        1.8337057037       -1.5417310210
 C         -4.0170336057        3.0925128339       -0.6932142752
 H         -3.6055298581        3.8681506017       -1.3433616833
 H         -4.9982657211        3.4320339150       -0.3530319024
 C         -3.0989332929        2.9423360295        0.5223563241
 H         -2.7743857098        3.9426494501        0.8179438017
 H         -2.1984473857        2.3939151689        0.2358868959
 C         -3.7879224312        2.2698662437        1.7192970255
 H         -3.6358286491        2.8815744502        2.6113596445
 H         -4.8631488783        2.2449575214        1.5416363057
 C         -3.2880958351        0.8605940806        2.0637348713
 H         -2.4248125563        0.9383224787        2.7325588999
 H         -4.0693807244        0.3344854727        2.6235620129
 H         -3.2418012376        1.6072799000       -2.0444656673
 H         -4.9277075271        2.0437833682       -2.3156876259
 H         -5.2979943213        0.8380709852        0.0486636744
 H         -5.1393204910       -0.0939694350       -1.4492353397
 O         -2.9592530761       -1.0067777780       -1.2145692014
 C         -1.8194548979       -1.7700782104       -1.0293423836
 O         -1.5006676303       -2.4669500803       -2.0117702303
 O         -0.9938036170       -0.6809309839        2.3169771656
 C          0.1067203912       -2.4820112858        0.4088202648
 C          1.1805040331       -2.0206006571       -0.5482480863
 C          2.1482232845       -2.8665751876       -1.0766208445
 C          3.1209888212       -2.3694380359       -1.9271184106
 C          3.1666109199       -1.0256855565       -2.2531554414
 C          2.2051956586       -0.1708949608       -1.7264354326
 C          1.2280280038       -0.6757756680       -0.8849876889
 H          0.4715891712       -0.0068745889       -0.5073275968
 N          2.1964978768        1.1982190635       -2.0288141645
 S          1.6851422758        2.3015295444       -0.8808524363
 O          0.2540713622        2.2431097013       -0.7235713974
 O          2.2166611074        3.5651246662       -1.3465493919
 C          2.5257656313        1.8143773779        0.6152479717
 C          1.8431544947        1.2328303851        1.6630395729
 C          2.5559923450        0.8175882450        2.7775864890
 C          3.9296964773        0.9908829968        2.8271687387
 C          4.6010374231        1.5873176648        1.7699048388
 C          3.8951322425        1.9999752509        0.6527151219
 H          4.3782375039        2.4772761684       -0.1844071815
 H          5.6691504489        1.7269577167        1.8123892549
 H          4.4784603122        0.6614336058        3.6953304420
 H          2.0232713460        0.3535656221        3.5924871463
 H          0.7741175526        1.0994262400        1.6069374194
 H          2.9917194649        1.5305376898       -2.5531434592
 H          3.9271803015       -0.6422940092       -2.9157075754
 H          3.8607580524       -3.0389693794       -2.3388156786
 H          2.1351316290       -3.9155889742       -0.8298421665
 H          0.4415004580       -2.2330680470        1.4280293395
 C         -0.1609507907       -3.9710367666        0.3358062399
 C          0.6272101659       -4.9262444498        1.1802696093
 C         -0.8077476286       -4.6462190994        1.5071257129
 H         -1.5433013743       -5.4135941017        1.3184627671
 H         -1.0272307339       -4.0353665872        2.3707658980
 H          0.8770331007       -5.8923804357        0.7682600260
 H          1.3821746715       -4.5134446787        1.8321596077
 H         -0.4639267248       -4.2895439214       -0.6550785298
