  62
        -98.92947439
 C         -2.3407606001       -1.2104620607        0.1120455375
 C         -2.9978370410       -0.2832965654        0.9531790300
 C         -3.5204846000        0.9370980691        0.3170339052
 C         -3.3124775270        1.1228504118       -0.9980718512
 C         -3.6944577105        2.3187079037       -1.8257793025
 C         -2.5294451874        3.3211418227       -1.8959012445
 C         -2.4920407061        4.3444936255       -0.7619621890
 H         -1.5604995022        4.9061931512       -0.8634692638
 H         -3.3179620024        5.0487585146       -0.8837113272
 C         -2.5538953698        3.7544995092        0.6492800839
 H         -1.9020840271        2.8794902374        0.7067908135
 H         -2.1502280817        4.4973556541        1.3406543216
 C         -3.9794894436        3.3872775231        1.0885494485
 H         -4.1814288726        3.8331653787        2.0647168721
 H         -4.6903412903        3.8316175248        0.3921701089
 C         -4.2601355694        1.8834548365        1.2232826212
 H         -5.3350860646        1.7103104049        1.1048786731
 H         -4.0007810818        1.5557712017        2.2350657744
 H         -1.5945845175        2.7533398817       -1.9037480820
 H         -2.5902381394        3.8652122059       -2.8406957367
 H         -4.5938732623        2.7870007345       -1.4370289765
 H         -3.8955983614        1.9481890973       -2.8329700868
 O         -2.6443421343        0.2220988046       -1.7669057289
 C         -2.1275028379       -0.9523375925       -1.2433641525
 O         -1.5235012330       -1.6539388326       -2.0718820117
 O         -3.1344572972       -0.4637170987        2.1961731493
 C         -1.7567271443       -2.4675320617        0.7488576448
 C         -0.2660239489       -2.4124249939        0.5252780784
 C          0.4874051041       -3.1556367313       -0.3735449896
 C          1.8427477518       -2.9115946710       -0.5298168378
 C          2.4792427154       -1.9127361624        0.1820184644
 C          1.7349118282       -1.1502766132        1.0722146582
 C          0.3897496752       -1.4157828588        1.2467099729
 H         -0.1842525244       -0.8062808743        1.9355708789
 N          2.3607305879       -0.0787174764        1.7594658633
 S          2.5913868536        1.2703661580        0.7705175465
 O          2.7750976556        2.3861791191        1.6737559999
 O          1.5257270519        1.4020483222       -0.1991123459
 C          4.1301047131        0.9079197180       -0.0444398374
 C          4.1437227910        0.6340629072       -1.3976389498
 C          5.3521648365        0.3310789297       -2.0060283708
 C          6.5169417176        0.3067273065       -1.2539555621
 C          6.4856672140        0.5858984642        0.1045083573
 C          5.2814789995        0.8900926454        0.7187695341
 H          5.2094833817        1.1184790602        1.7689744659
 H          7.3936107273        0.5659320987        0.6853157946
 H          7.4547549500        0.0682008314       -1.7302920033
 H          5.3777350372        0.1131435390       -3.0616457359
 H          3.2111300075        0.6572098192       -1.9391065217
 H          1.8343831753        0.2149671831        2.5721611809
 H          3.5307830140       -1.7153291637        0.0524293241
 H          2.4068071726       -3.5041601860       -1.2338739610
 H          0.0276717069       -3.9091296022       -0.9864215596
 H         -1.9139105636       -2.3155371911        1.8294303938
 C         -2.5798817390       -3.6963812505        0.3989580835
 C         -2.5556082028       -4.4326910748       -0.9047244440
 C         -2.0374081924       -5.0925485042        0.3386624728
 H         -2.6301956739       -5.8825610518        0.7754543716
 H         -0.9746820866       -5.2314010285        0.4527861353
 H         -3.5040365305       -4.7680008061       -1.3002404282
 H         -1.8758525637       -4.0950141645       -1.6691011864
 H         -3.5662723146       -3.5946617061        0.8468700517
