  62
        -98.93282580
 C         -2.4041575806       -1.2745807750        0.0747120633
 C         -2.4825075209       -0.0051254407       -0.5449716662
 C         -3.8370513841        0.5428940078       -0.7117483996
 C         -4.9014676457       -0.1735965248       -0.3072399614
 C         -6.3520055937        0.2040881463       -0.4552548628
 C         -6.8214075839        1.4389394159        0.3379544039
 C         -6.7821591347        2.7515971066       -0.4541562127
 H         -6.8437169724        2.5212269983       -1.5184048855
 H         -7.6705285477        3.3367876046       -0.2080753916
 C         -5.5695326439        3.6508953393       -0.1954718923
 H         -5.5360279071        4.4034071556       -0.9862639923
 H         -5.7101899840        4.1758715492        0.7520863376
 C         -4.2159317714        2.9431415994       -0.1291866573
 H         -4.1220606915        2.4159328253        0.8232280991
 H         -3.4314418273        3.7025712320       -0.1378798151
 C         -3.9618011222        1.9326969937       -1.2647896837
 H         -3.0133424564        2.1567107899       -1.7576324001
 H         -4.7559328246        1.9808464023       -2.0085646943
 H         -6.2360929245        1.5275787012        1.2526912423
 H         -7.8549619244        1.2502547189        0.6323341581
 H         -6.5677825958        0.3517672763       -1.5158201022
 H         -6.9139108031       -0.6696632421       -0.1191161412
 O         -4.7798083400       -1.4001411216        0.2717009080
 C         -3.5381771321       -1.9720135265        0.4896004394
 O         -3.5747138744       -3.0849995209        1.0526096729
 O         -1.4763363658        0.6386143147       -0.9445128882
 C         -1.0527574704       -1.9283695909        0.2929200849
 C         -0.1351401966       -1.0115146977        1.0650430532
 C         -0.6236967461       -0.3491173218        2.1882897683
 C          0.1876402890        0.4994427418        2.9154617376
 C          1.5043436906        0.7027856276        2.5418809645
 C          2.0099262996        0.0284871378        1.4369904898
 C          1.1921310920       -0.8266474049        0.7106922132
 H          1.6067093764       -1.3316220507       -0.1448665513
 N          3.3619806770        0.1736701208        1.0789328344
 S          3.8271426706        0.1400720702       -0.5428132982
 O          3.1032505949        1.1356848524       -1.3013405295
 O          3.7537081730       -1.2151487633       -1.0261933734
 C          5.5372017232        0.6184709247       -0.3710775937
 C          6.4562066459       -0.3421011364        0.0070635073
 C          7.7820562699        0.0261876367        0.1701170741
 C          8.1654504149        1.3414993260       -0.0465786003
 C          7.2327371002        2.2939110499       -0.4285475880
 C          5.9045336732        1.9322883963       -0.5917839746
 H          5.1468141212        2.6363748276       -0.8966297640
 H          7.5343356891        3.3146585693       -0.6002743324
 H          9.1982205506        1.6255232667        0.0799706011
 H          8.5106365235       -0.7121664183        0.4638061622
 H          6.1134886681       -1.3528454325        0.1545924070
 H          3.8033811129        0.9495416559        1.5543857719
 H          2.1352730227        1.3743518690        3.1042510058
 H         -0.2097565387        1.0145978528        3.7773045345
 H         -1.6555974290       -0.5014480411        2.4759647259
 H         -1.2411832529       -2.8215370713        0.9077899757
 C         -0.4737978054       -2.3689154103       -1.0361305705
 C          0.4121684005       -3.5744378871       -1.1149223216
 C         -0.9785656457       -3.6288727433       -1.6700678914
 H         -1.1087019618       -3.6506566406       -2.7416644148
 H         -1.7254899254       -4.1892769924       -1.1263829597
 H          1.2459454217       -3.5544112167       -1.8010265495
 H          0.6114784622       -4.1073220363       -0.1973342748
 H         -0.2543964019       -1.5322767662       -1.6914872323
