  62
        -98.94413889
 C         -1.7287087798       -1.4404238692        0.2098049911
 C         -2.0238355548       -0.6822671829       -0.9491916996
 C         -2.8977110859        0.4860672063       -0.7534616517
 C         -3.3153583210        0.8061034436        0.4841158084
 C         -4.1664396156        1.9936094325        0.8267216472
 C         -3.3176500169        3.2322533879        1.1462037852
 C         -2.2459191832        3.5402197791        0.1006566645
 H         -1.7384392824        4.4552916052        0.4131296453
 H         -1.4979487346        2.7455544074        0.1052142741
 C         -2.7782329595        3.7118553254       -1.3281170713
 H         -3.8521614338        3.9008418351       -1.3073900796
 H         -2.3032006705        4.5869032607       -1.7767032560
 C         -2.4897298424        2.5267622890       -2.2514146844
 H         -1.4256303566        2.2784509806       -2.2050267197
 H         -2.7039919079        2.8357748749       -3.2782286031
 C         -3.3036163344        1.2548268391       -1.9803404506
 H         -4.3658578338        1.5052090435       -1.9379788975
 H         -3.1459439651        0.5767473152       -2.8243778567
 H         -3.9867063661        4.0889324264        1.2444088593
 H         -2.8234737742        3.0778658867        2.1080871272
 H         -4.8329856048        2.2052280893       -0.0074418817
 H         -4.7663945862        1.7414542657        1.7028221265
 O         -2.9718532744        0.0864945019        1.5817630274
 C         -2.1977121038       -1.0566138583        1.4718335775
 O         -1.9953699658       -1.6386738571        2.5539963999
 O         -1.5961585583       -0.9426178031       -2.1072257800
 C         -0.8828428448       -2.7077703473        0.1994414635
 C          0.5845302690       -2.3535814404        0.2108170591
 C          1.4146208843       -2.7271342355        1.2607768430
 C          2.7421029405       -2.3336782265        1.2851304196
 C          3.2595708002       -1.5353797264        0.2804712707
 C          2.4322972147       -1.1499482092       -0.7661640846
 C          1.1162804028       -1.5812117720       -0.8113119148
 H          0.4813198721       -1.2775506208       -1.6305886442
 N          2.9155103134       -0.2451176535       -1.7345947163
 S          3.4712386278        1.2042338604       -1.0909437262
 O          3.0775363306        2.2320689480       -2.0293891763
 O          4.8880891287        1.0959749003       -0.8451350995
 C          2.6217231201        1.3968479602        0.4712236991
 C          1.2407143666        1.3661667012        0.4947050443
 C          0.5913817224        1.4344927254        1.7162339973
 C          1.3254909670        1.5499584257        2.8863302407
 C          2.7095928812        1.6007901002        2.8448927645
 C          3.3656107211        1.5141737575        1.6275921606
 H          4.4405438489        1.5262349407        1.5497644179
 H          3.2774245743        1.6943125305        3.7563808009
 H          0.8090104620        1.5935549006        3.8321392366
 H         -0.4853280147        1.3772434242        1.7561920021
 H          0.6869295269        1.2774071531       -0.4277542415
 H          2.2383854370       -0.0599892375       -2.4622444531
 H          4.2800015043       -1.1870582053        0.2987209910
 H          3.3755470848       -2.6347601968        2.1050764482
 H          1.0073402292       -3.3112353072        2.0726218096
 H         -1.1106494974       -3.2236129530        1.1413483817
 C         -1.2132558368       -3.6406676146       -0.9490306223
 C         -0.8709046109       -5.0933711239       -0.8233136190
 C         -2.3031839379       -4.6538399598       -0.7798939902
 H         -2.9387270414       -4.8720989351       -1.6249670703
 H         -2.8169054511       -4.6818647527        0.1702345912
 H         -0.5195054543       -5.6168146233       -1.6991702818
 H         -0.4146558110       -5.4225489734        0.0979502897
 H         -1.1104672923       -3.1816693262       -1.9232513209
