  62
        -98.94683004
 C          1.6809246840        1.2383100378        0.3500437987
 C          1.3685093939        0.1749226268       -0.5310875274
 C          2.0494088749       -1.0984570890       -0.2665706774
 C          2.8495176267       -1.2055322161        0.8092951925
 C          3.6319403187       -2.4316209095        1.1789941897
 C          5.0325229373       -2.4118632295        0.5503947998
 C          5.0336682549       -2.0973510036       -0.9454564178
 H          4.6880282270       -1.0717269955       -1.0927472897
 H          6.0704829714       -2.1406660102       -1.2855927189
 C          4.1762872525       -3.0471946298       -1.7932779818
 H          4.7436302390       -3.3326548602       -2.6815490501
 H          3.9701413222       -3.9596903967       -1.2327845739
 C          2.8574475800       -2.4449030522       -2.2810706100
 H          2.4378596381       -3.1131408412       -3.0375259655
 H          3.0511249908       -1.4833012975       -2.7626589790
 C          1.7804556530       -2.2374530928       -1.2084061978
 H          0.8436378684       -1.9892358339       -1.7159307624
 H          1.6240363409       -3.1636643622       -0.6509231829
 H          5.4999629019       -3.3832868685        0.7212837979
 H          5.6292067569       -1.6526461327        1.0613730392
 H          3.0842396580       -3.3139383594        0.8527489092
 H          3.7294327323       -2.4611480411        2.2658615329
 O          3.0737978041       -0.1806910360        1.6725662929
 C          2.4946597511        1.0607006725        1.4663744088
 O          2.7711906663        1.9109605167        2.3397574099
 O          0.5642351920        0.2870569472       -1.4927129596
 C          1.0275474984        2.5961966842        0.1518999577
 C         -0.4704021728        2.4154579340        0.1425537189
 C         -1.3134335396        2.9708699730       -0.8110530942
 C         -2.6683529087        2.6849084094       -0.8058957275
 C         -3.2057311067        1.8241911579        0.1340779156
 C         -2.3738039872        1.2866878866        1.1064598354
 C         -1.0282563751        1.6049941791        1.1242275771
 H         -0.3868805410        1.1666926943        1.8800036354
 N         -2.9112337721        0.3251810775        2.0150952279
 S         -2.5290439118       -1.2348528732        1.4785256555
 O         -3.1858964213       -2.1381423329        2.4008589598
 O         -1.0971789981       -1.4164789418        1.3581315371
 C         -3.3226154089       -1.2867662297       -0.1094768416
 C         -4.6610554183       -1.6260512669       -0.1583269619
 C         -5.3096018500       -1.6168495172       -1.3823446162
 C         -4.6124400453       -1.2634807336       -2.5282834864
 C         -3.2702024068       -0.9234448790       -2.4599594172
 C         -2.6125029670       -0.9317702150       -1.2392511002
 H         -1.5704072075       -0.6608740559       -1.1558691313
 H         -2.7250411238       -0.6429004554       -3.3468400302
 H         -5.1176615813       -1.2515078819       -3.4812464468
 H         -6.3534464290       -1.8803947775       -1.4388473066
 H         -5.1569710424       -1.8928874077        0.7604745040
 H         -2.5346378439        0.4246824443        2.9495539596
 H         -4.2503231939        1.5593004318        0.1248607935
 H         -3.3079884913        3.1173156340       -1.5594022979
 H         -0.9040932093        3.6141647266       -1.5727217588
 H          1.3040321629        3.2010508468        1.0279763349
 C          1.5643163413        3.2623508638       -1.0976237117
 C          1.6106909134        4.7568448512       -1.1974300144
 C          2.8790813337        3.9771641641       -1.0284594867
 H          3.5542261588        3.8977942755       -1.8671921124
 H          3.3769339236        4.0052203536       -0.0697794911
 H          1.4187085846        5.2162918674       -2.1551529881
 H          1.2514812719        5.3259315541       -0.3534330248
 H          1.3510434964        2.6928698065       -1.9948964727
