  62
        -98.94285405
 C         -1.5709951723       -1.4585266544        0.1203956162
 C         -2.7044219721       -0.9759722356        0.8209233680
 C         -3.3594987753        0.2081525902        0.2532749679
 C         -2.8497566773        0.7864828692       -0.8492808845
 C         -3.4090573679        1.9923538805       -1.5553263733
 C         -2.9860127824        3.3342429267       -0.9415977397
 C         -3.6438972106        3.6776376797        0.3952541065
 H         -3.4324896550        4.7297729358        0.5965175629
 H         -4.7257927728        3.5751082141        0.3063355866
 C         -3.1404645240        2.8388625650        1.5784202375
 H         -2.1985710535        2.3554181619        1.3073266431
 H         -2.9302967597        3.4936231981        2.4273841175
 C         -4.1226940737        1.7712298326        2.0601626174
 H         -5.0186949788        2.2512917983        2.4598961691
 H         -3.6516279496        1.2109683791        2.8721449302
 C         -4.5457778112        0.7703795047        0.9771461235
 H         -5.0631886245       -0.0602835362        1.4638061234
 H         -5.2305839886        1.2445031881        0.2741614010
 H         -1.9008569565        3.3387155198       -0.8167615855
 H         -3.2429901764        4.1165264751       -1.6594939043
 H         -3.0390022023        1.9501429597       -2.5818553922
 H         -4.4976055427        1.9307615989       -1.5772416480
 O         -1.7437523143        0.3110274949       -1.4776452758
 C         -1.0681621310       -0.8111650988       -1.0110791439
 O         -0.0656121748       -1.1089318628       -1.6817787398
 O         -3.1449667731       -1.5067090888        1.8760546452
 C         -0.8397990257       -2.6584293466        0.6965568471
 C          0.6420005670       -2.3769029523        0.7266755709
 C          1.6030403201       -3.2041191940        0.1627976256
 C          2.9413400850       -2.8499813108        0.1975355405
 C          3.3496342593       -1.6672238678        0.7845771144
 C          2.3950552619       -0.8315681272        1.3505817777
 C          1.0599800476       -1.1976942597        1.3328472877
 H          0.3190536727       -0.5417259143        1.7748540020
 N          2.7928381059        0.3923727602        1.9283907292
 S          3.6283254619        1.4526904862        0.9331660462
 O          4.9741500033        0.9673276094        0.7592098878
 O          3.4968349490        2.7451882247        1.5689833091
 C          2.7655190611        1.4380018926       -0.6257351561
 C          3.2123153904        0.6232469551       -1.6453648362
 C          2.5022937070        0.5891898051       -2.8338033105
 C          1.3662054926        1.3671595195       -2.9822990998
 C          0.9335165791        2.1847118138       -1.9507803747
 C          1.6327333736        2.2162059376       -0.7562754402
 H          1.3280283602        2.8401991050        0.0700175100
 H          0.0460913515        2.7854573555       -2.0734502753
 H          0.8077812930        1.3310717257       -3.9041131545
 H          2.8298453428       -0.0521951188       -3.6357148737
 H          4.1032932954        0.0365757841       -1.4935736591
 H          2.0312912985        0.8835673688        2.3749829411
 H          4.3851395295       -1.3677875586        0.8026983240
 H          3.6767185281       -3.5015993341       -0.2494091199
 H          1.3051899663       -4.1156691615       -0.3280736878
 H         -1.1951919856       -2.7204976891        1.7394427178
 C         -1.1933957136       -3.9854486375        0.0424020171
 C         -2.5020381777       -4.1754994058       -0.6630790382
 C         -1.2252678127       -4.1569508615       -1.4458069496
 H         -0.8682324435       -5.0876203838       -1.8620956140
 H         -1.0024944102       -3.2924103124       -2.0506643045
 H         -3.0189277632       -5.1153424234       -0.5385140474
 H         -3.1609468817       -3.3225334086       -0.7372314294
 H         -0.8382048936       -4.8312902442        0.6231586460
