  62
        -98.94107368
 C         -1.7353048252       -1.0874377382        0.0395931135
 C         -2.1483047298        0.1013036864       -0.6119957134
 C         -3.5997872839        0.2540893679       -0.7962800092
 C         -4.4403953605       -0.7050541542       -0.3712442010
 C         -5.9382262252       -0.7014267533       -0.5138506992
 C         -6.6677264370        0.0763038407        0.5901009670
 C         -6.5375361193        1.5978007007        0.5084917451
 H         -6.8117459357        1.9317029064       -0.4927257507
 H         -7.2665420418        2.0195326892        1.2032996284
 C         -5.1448595082        2.1341846273        0.8686324355
 H         -4.5844043532        1.3639423964        1.4034316785
 H         -5.2456756034        2.9845170241        1.5467776267
 C         -4.3176140607        2.6051880642       -0.3276686202
 H         -3.3376943543        2.9250925830        0.0364947695
 H         -4.8021943530        3.4668950747       -0.7922904827
 C         -4.0939852529        1.5328492919       -1.4019943766
 H         -5.0137025650        1.3611987139       -1.9611104980
 H         -3.3264096815        1.8938841546       -2.0912613466
 H         -7.7274573039       -0.1804677172        0.5234540267
 H         -6.3023957759       -0.2690178001        1.5599860295
 H         -6.2126938799       -0.2967999979       -1.4884514790
 H         -6.2572807176       -1.7449478726       -0.4677222869
 O         -4.0035996834       -1.8347525575        0.2465033932
 C         -2.6555328443       -2.0357738667        0.4956873256
 O         -2.4050964854       -3.0828381529        1.1249914714
 H          1.7247256503        0.1667481967       -0.8045342667
 C          1.4212846410        0.5098503213        0.1694418372
 C          0.4063955632       -0.1331778941        0.8589273365
 C         -0.0023086755        0.3867349580        2.0846946192
 C          0.5837568574        1.5262042203        2.5996524937
 C          1.6069774552        2.1586920737        1.9149606257
 C          2.0209197506        1.6486807370        0.6907406173
 N          3.0511817526        2.2682356081       -0.0276071521
 S          4.0879317757        1.3751534530       -0.9775818652
 O          5.2856660775        2.1850777090       -1.0563881718
 O          3.4764696035        1.0419445014       -2.2390279152
 C          4.4247341475       -0.1138207235       -0.0518119386
 C          4.8996777845        0.0040716455        1.2394679865
 C          5.1590819998       -1.1463607542        1.9662938048
 C          4.9432571096       -2.3899422280        1.3923528131
 C          4.4746120614       -2.4923205098        0.0919696223
 C          4.2114720574       -1.3442520345       -0.6384669118
 H          3.8413367168       -1.3782512569       -1.6509433166
 H          4.3094685666       -3.4603413824       -0.3541268629
 H          5.1426238868       -3.2849425589        1.9602698069
 H          5.5266677622       -1.0706801901        2.9768996262
 H          5.0655588286        0.9842259012        1.6556018243
 H          3.5125242771        3.0330648756        0.4405903922
 H          2.0682635754        3.0485439678        2.3153359273
 H          0.2479348236        1.9235505309        3.5457075768
 H         -0.7996527969       -0.1099942997        2.6212773035
 C         -0.2731703599       -1.3745608611        0.3372578427
 H         -0.2911298690       -2.1152610208        1.1539159426
 C          0.4841802815       -2.0191423215       -0.8136637842
 C         -0.2035180017       -2.9295996442       -1.7851506846
 C          0.2961708886       -1.5914956559       -2.2367134899
 H          1.1630569457       -1.5494592423       -2.8808943282
 H         -0.4217003546       -0.8108804720       -2.4339910184
 H         -1.2695024928       -3.0670186445       -1.6751531130
 H          0.3181847667       -3.8146738354       -2.1166034338
 H          1.4908312143       -2.3013910970       -0.5196067435
 O         -1.3664310434        0.9956699078       -1.0245297164
