  62
        -98.93867062
 C         -1.8934681415       -1.3485890588        0.1363641998
 C         -2.2072527982       -0.3583511866       -0.8230171651
 C         -3.5878466783        0.1623825688       -0.8085453479
 C         -4.4650653667       -0.2895427745        0.1058890454
 C         -5.9272291614        0.0326985996        0.3320534898
 C         -6.5632245197        1.2714549600       -0.2939067949
 C         -6.0303424047        2.6031527229        0.2332582318
 H         -6.3477988966        2.7188173773        1.2726757621
 H         -6.4902511307        3.4070893625       -0.3457731483
 C         -4.5131014436        2.7693662126        0.1944101771
 H         -4.0465531974        2.0438847453        0.8643815224
 H         -4.2758226659        3.7630783032        0.5843933119
 C         -3.8763603586        2.6493075447       -1.1890323737
 H         -2.8302243878        2.9538679770       -1.0950653924
 H         -4.3639898484        3.3405476063       -1.8792486063
 C         -3.8951833506        1.2403872145       -1.8079623353
 H         -3.1070806271        1.1948123384       -2.5649790750
 H         -4.8395404573        1.0399291633       -2.3080025613
 H         -7.6293502463        1.2260697845       -0.0552857509
 H         -6.4821346380        1.2325546624       -1.3762461679
 H         -6.4824983933       -0.8487342146       -0.0076590385
 H         -6.0546828454        0.0762982629        1.4183651359
 O         -4.1162648981       -1.2417647739        1.0187948858
 C         -2.8483002255       -1.7868668090        1.0590938050
 O         -2.6928539335       -2.6472362335        1.9482629951
 H          0.3871034273        0.4213471651       -0.4966954440
 C          0.8386122852        0.0939190079        0.4280257337
 C          0.4623062841       -1.1259748375        0.9719684464
 C          1.0454990989       -1.5278015840        2.1675967043
 C          1.9813647956       -0.7278489167        2.8008530073
 C          2.3549707722        0.4867527945        2.2544481340
 C          1.7708651800        0.8992482692        1.0639990643
 N          2.1609604461        2.1273860518        0.4874138454
 S          3.7922761434        2.2329525694        0.1098411938
 O          4.5381234549        2.5231089583        1.3087996733
 O          3.8892314980        3.2122178447       -0.9492985594
 C          4.2091104354        0.6048453516       -0.4878684650
 C          4.9387031851       -0.2537092027        0.3086172429
 C          5.1804494517       -1.5413999454       -0.1422491374
 C          4.6861659526       -1.9470406294       -1.3718728148
 C          3.9558440096       -1.0717107662       -2.1609751439
 C          3.7098832618        0.2162311117       -1.7150861156
 H          3.1475631442        0.9235982519       -2.3038723353
 H          3.5723798638       -1.3875335475       -3.1181497010
 H          4.8716738421       -2.9515804702       -1.7183737402
 H          5.7479903033       -2.2248994995        0.4682957165
 H          5.3033120906        0.1024361899        1.2579747425
 H          1.6056135765        2.3678195176       -0.3220877525
 H          3.0887005167        1.1202029637        2.7264828998
 H          2.4253331390       -1.0538885058        3.7289746164
 H          0.7527145204       -2.4709469027        2.6054759601
 C         -0.5288832420       -2.0104770700        0.2544003026
 H         -0.6904587281       -2.9023021006        0.8740887625
 C          0.0359611962       -2.4519237194       -1.0832548703
 C          1.0918204500       -3.5136954147       -1.1084543230
 C         -0.2898880097       -3.8179540695       -1.6033335829
 H         -0.4460020777       -3.9407815803       -2.6645911274
 H         -0.9248089681       -4.4459814870       -0.9950357361
 H          1.3963904851       -3.9377286863       -0.1638711105
 H          1.8894712602       -3.4270517555       -1.8292481918
 H          0.1089069856       -1.6495487926       -1.8048679903
 O         -1.3933858365        0.0902777311       -1.6757135859
