  62
        -98.94334686
 C         -2.5543109862       -0.0216392737       -0.1383768359
 C         -2.4234321056       -1.1637374309       -0.9670205998
 C         -1.9210685010       -2.3842422969       -0.3253415704
 C         -1.6167467693       -2.3582023885        0.9844327488
 C         -1.0594873560       -3.5158409354        1.7606537230
 C          0.4741517152       -3.4876720015        1.7831467406
 C          1.1170912170       -3.3293195866        0.4047858747
 H          0.9180621488       -2.3212213640        0.0315584055
 H          2.1988785199       -3.3996087061        0.5444520350
 C          0.6698848972       -4.3614596114       -0.6394198609
 H          1.5511086676       -4.7043283847       -1.1854947717
 H          0.2354516938       -5.2298423403       -0.1421047751
 C         -0.3141079777       -3.8232800604       -1.6801932935
 H         -0.3587661461       -4.5356857382       -2.5086626331
 H          0.0645788549       -2.8773901349       -2.0784519047
 C         -1.7507859358       -3.6018249203       -1.1891483893
 H         -2.1064755597       -4.4960937235       -0.6726954449
 H         -2.3819483323       -3.4363432535       -2.0673605501
 H          0.8280285525       -4.4096012369        2.2494746138
 H          0.7949727316       -2.6428160322        2.3972401573
 H         -1.4280510901       -3.4482339025        2.7859902500
 H         -1.4112704578       -4.4458897943        1.3177624808
 O         -1.7621337540       -1.2501979047        1.7522119211
 C         -2.1703963958       -0.0425999922        1.2047184745
 O         -2.1701664526        0.9016135167        2.0167387968
 O         -2.7103242860       -1.1593437406       -2.1961868479
 C         -2.9282406642        1.2917495710       -0.8077889456
 C         -1.8496120551        2.2977334900       -0.4913518323
 C         -2.0705989110        3.5552824393        0.0516025970
 C         -0.9986624620        4.3727535933        0.3703904268
 C          0.3035804157        3.9482854414        0.1818060334
 C          0.5330388543        2.6935735240       -0.3725368917
 C         -0.5404391693        1.9005684730       -0.7334308063
 H         -0.3526988050        0.9276281702       -1.1655161747
 N          1.8365752677        2.2025727185       -0.5801096828
 S          2.0606656614        0.5479189108       -0.2895588791
 O          1.7056912987       -0.1811814694       -1.4823731733
 O          1.3944210513        0.1588463222        0.9312936128
 C          3.8299518143        0.4992283595       -0.0718584200
 C          4.6384341754        0.4895072849       -1.1927173237
 C          6.0141808309        0.4913871846       -1.0258118961
 C          6.5553716877        0.5034602996        0.2513015617
 C          5.7312942694        0.5100512539        1.3666719453
 C          4.3543871744        0.5099895816        1.2065554631
 H          3.6727852340        0.5073668586        2.0423807624
 H          6.1539777199        0.5155012360        2.3584128497
 H          7.6263362803        0.5047365264        0.3785203075
 H          6.6578944270        0.4829563110       -1.8904652318
 H          4.1707224148        0.4709252709       -2.1632236935
 H          2.5372317933        2.7525289630       -0.1007703839
 H          1.1353042645        4.5747753205        0.4666892770
 H         -1.1814634361        5.3465053723        0.7992424262
 H         -3.0768234523        3.8837945688        0.2543179418
 H         -2.8699863516        1.0654272964       -1.8868195105
 C         -4.3410879832        1.7888789292       -0.5514236805
 C         -5.4328252008        0.8387702577       -0.1613031765
 C         -4.9432843997        1.8603902121        0.8185704001
 H         -5.5882438264        2.6963663308        1.0474899602
 H         -4.3365530250        1.5331081636        1.6473018865
 H         -6.4100533773        0.9691342271       -0.6015123237
 H         -5.1581555661       -0.1939072809        0.0000318646
 H         -4.6201969494        2.5777955367       -1.2436511167
