  62
        -98.93906117
 C         -1.4931312883       -0.7813788371       -0.1158047335
 C         -2.7726314416       -1.3774789586       -0.1241384265
 C         -3.9008859038       -0.5401804001        0.3296170450
 C         -3.6492752720        0.7190587929        0.7340445123
 C         -4.6328689809        1.7600835717        1.1987127388
 C         -5.4202909610        2.3911605229        0.0388384882
 C         -5.9275704840        1.4022878367       -1.0075472289
 H         -6.3644004914        1.9799896329       -1.8265124798
 H         -5.0812391358        0.8484317406       -1.4179464203
 C         -6.9865334045        0.4190125745       -0.5147273422
 H         -7.8499259359        0.9772103457       -0.1454928828
 H         -7.3143894150       -0.1648735633       -1.3787131893
 C         -6.5380928541       -0.5571210287        0.5747719174
 H         -7.3040866971       -1.3346903832        0.6498397169
 H         -6.4983237119       -0.0699666573        1.5453256397
 C         -5.2210026729       -1.2718044384        0.2884863193
 H         -5.1178812796       -2.1059364656        0.9934620729
 H         -5.2751853285       -1.7393221810       -0.7014245562
 H         -4.7629551728        3.1017786116       -0.4678303551
 H         -6.2617045374        2.9476892260        0.4550846801
 H         -4.0512544513        2.5429767702        1.6901675654
 H         -5.3053081945        1.3346845990        1.9377124427
 O         -2.3925392480        1.2489752034        0.7337698289
 C         -1.2875800212        0.5285102708        0.3170408447
 O         -0.2101103797        1.1465698590        0.3805444313
 O         -2.9746310661       -2.5665205954       -0.4953609322
 C         -0.2941533423       -1.5839943162       -0.5840599021
 C          0.7586329236       -1.6197727097        0.4950458980
 C          0.3856178252       -1.9466841023        1.7967603540
 C          1.3172060939       -1.9620764599        2.8157592715
 C          2.6401749738       -1.6421482465        2.5632188755
 C          3.0261375711       -1.3320388795        1.2655540679
 C          2.0904538349       -1.3367266542        0.2393349583
 H          2.4229686849       -1.1174514035       -0.7603318572
 N          4.3603672892       -1.0236855495        0.9732053862
 S          4.7577411540       -0.0030802165       -0.2850456496
 O          4.6457775434       -0.7008235299       -1.5420186632
 O          6.0862976917        0.4647686251        0.0510174807
 C          3.6087236533        1.3594077914       -0.2334288236
 C          2.9218442630        1.7088514575       -1.3770460957
 C          2.0509278045        2.7844339793       -1.3347637355
 C          1.8798361297        3.4865465088       -0.1535308363
 C          2.5787378689        3.1247710778        0.9865021600
 C          3.4537167488        2.0525684681        0.9494808739
 H          4.0124895345        1.7515615929        1.8210507448
 H          2.4365837071        3.6703535095        1.9056012137
 H          1.1908851191        4.3155842175       -0.1197654105
 H          1.4999316329        3.0639660012       -2.2190599507
 H          3.0769152135        1.1297494192       -2.2741614987
 H          4.9635278642       -0.9019078829        1.7724709183
 H          3.3667973996       -1.6383953555        3.3610947885
 H          1.0108501185       -2.2145105170        3.8198506412
 H         -0.6505810781       -2.1815286169        1.9992877652
 H         -0.6649790936       -2.6071202261       -0.7460613766
 C          0.2172415018       -1.0328775025       -1.8987038439
 C          0.9359330422       -1.9234159968       -2.8663057646
 C         -0.4489670119       -1.4421068675       -3.1764994078
 H         -0.5784038204       -0.7018040180       -3.9516800405
 H         -1.2629308368       -2.1489935783       -3.1072831899
 H          1.7664065834       -1.5176352254       -3.4250368452
 H          1.0627970212       -2.9597069981       -2.5912174453
 H          0.5448269465       -0.0022243721       -1.8121888618
