  62
        -98.94436578
 C         -2.3685086240       -1.1306912477        0.2381638093
 C         -2.3885415408        0.1581985162       -0.3480625674
 C         -3.4044719002        1.0804279937        0.1772293306
 C         -4.2148968307        0.6903295246        1.1774091245
 C         -5.2807792451        1.5250517999        1.8339864614
 C         -6.6183274218        1.5361411193        1.0811533516
 C         -6.6285554632        2.3452628021       -0.2163624369
 H         -7.6718495556        2.4488878441       -0.5209536203
 H         -6.2452898337        3.3473735636       -0.0214941134
 C         -5.8402362236        1.7056101155       -1.3676943468
 H         -5.6655293845        0.6500514250       -1.1473456893
 H         -6.4343843253        1.7476857972       -2.2833211946
 C         -4.4993704235        2.3760646204       -1.6676352242
 H         -4.0106289048        1.8212265969       -2.4725863485
 H         -4.6691946930        3.3966846106       -2.0179285127
 C         -3.5363950302        2.4242246753       -0.4740080550
 H         -2.5478435218        2.7150892060       -0.8391061517
 H         -3.8716106375        3.1668422050        0.2499140449
 H         -7.3666168979        1.9606280408        1.7542990962
 H         -6.9085502609        0.5045270440        0.8695688199
 H         -5.4462471999        1.0935777500        2.8235270952
 H         -4.9215839073        2.5472915593        1.9566254531
 O         -4.1389567493       -0.5454897100        1.7385959544
 C         -3.2285906004       -1.4824842938        1.2813485172
 O         -3.2791971468       -2.5774838469        1.8762761169
 H          0.5706719640       -0.9422539399       -1.7108873234
 C          0.8696128526       -1.0980832459       -0.6867047188
 C          0.0089217784       -1.7315844344        0.1945626720
 C          0.4071900267       -1.8891568773        1.5195480034
 C          1.6383825487       -1.4285418689        1.9449723338
 C          2.4953603927       -0.7936991165        1.0618323900
 C          2.0995451783       -0.6156410064       -0.2561280538
 N          2.9572207293        0.0311111679       -1.1609918009
 S          3.7427441599        1.4305836694       -0.6736584644
 O          2.9844986076        2.1630098231        0.3141408875
 O          4.0522198567        2.1343227695       -1.8994314012
 C          5.2601284517        0.8295800046        0.0418083526
 C          6.0210615866       -0.0595814715       -0.6918427287
 C          7.2085403134       -0.5278883945       -0.1527835985
 C          7.6155470481       -0.0989581098        1.1018444322
 C          6.8430243914        0.7974845269        1.8240054341
 C          5.6531853767        1.2686714286        1.2908728381
 H          5.0166799212        1.9607149857        1.8193405798
 H          7.1607058208        1.1304461016        2.7990816355
 H          8.5398950861       -0.4655282048        1.5195359701
 H          7.8117248307       -1.2254440025       -0.7112348665
 H          5.6712027420       -0.3668572064       -1.6630590989
 H          2.5565227409        0.1474902104       -2.0808076932
 H          3.4518508322       -0.4213353524        1.3901913181
 H          1.9353888498       -1.5613687031        2.9742543528
 H         -0.2712282514       -2.3670477633        2.2130753196
 C         -1.3712048724       -2.1871928113       -0.2120448028
 H         -1.6125738339       -3.0916019015        0.3620462352
 C         -1.5095522085       -2.4964693437       -1.6878743221
 C         -0.8765744748       -3.7374751780       -2.2395724251
 C         -2.3672035618       -3.6476939475       -2.1153499212
 H         -2.9556639989       -3.5446934645       -3.0148312743
 H         -2.8525866771       -4.2233357463       -1.3407036032
 H         -0.4400497696       -3.7002983042       -3.2259678117
 H         -0.3480068745       -4.3750150735       -1.5472636701
 H         -1.5256798585       -1.6122275272       -2.3129490598
 O         -1.6099558390        0.5305520713       -1.2654477357
