  62
        -98.93747199
 C          1.9002857902        0.8417694247       -0.4560480702
 C          2.9661875865        1.2241232431        0.3953812733
 C          4.2735664128        0.6127467213        0.1174697462
 C          4.3839022729       -0.2608891277       -0.8998505976
 C          5.6238936361       -1.0304647490       -1.2563325248
 C          5.8132019236       -2.2070305572       -0.2775014172
 C          7.0556754917       -2.0982942770        0.6067890244
 H          6.9677836378       -2.8564787925        1.3879413157
 H          7.9378590816       -2.3409217973        0.0105359253
 C          7.2931119362       -0.7335330942        1.2605410992
 H          8.0350351671       -0.8834194254        2.0477818832
 H          7.7423937232       -0.0527265978        0.5359639226
 C          6.0583929117       -0.0569902281        1.8698572960
 H          5.3009451764       -0.7980214460        2.1264302267
 H          6.3607895563        0.4241395479        2.8022351310
 C          5.4253821900        1.0349666771        0.9871503724
 H          6.1991318334        1.4982449554        0.3687976275
 H          5.0141237026        1.8131771999        1.6367467981
 H          4.9224267025       -2.2768668279        0.3505337352
 H          5.8739716606       -3.1408708684       -0.8385182650
 H          5.4958218318       -1.4001794429       -2.2739068212
 H          6.4871531967       -0.3690860499       -1.2315733118
 O          3.3365084587       -0.6088479776       -1.6907478507
 C          2.0706965516       -0.0754042820       -1.4924585965
 O          1.2141278668       -0.4883898111       -2.2970987405
 O          2.8290714683        2.0425700374        1.3434461318
 C          0.5268323378        1.4383375470       -0.1967789325
 C         -0.3906987962        0.3446249447        0.2884987291
 C         -0.2798547264       -0.0982346520        1.6038264648
 C         -1.0879808770       -1.1133845119        2.0801003088
 C         -2.0245032981       -1.7101700842        1.2536484928
 C         -2.1368541019       -1.2797972961       -0.0608822227
 C         -1.3313215154       -0.2532395020       -0.5352307812
 H         -1.4231202495        0.0611132222       -1.5626613938
 N         -3.1053332730       -1.8719342129       -0.8983069496
 S         -4.6890130231       -1.7303063106       -0.3664390468
 O         -4.9331296713       -2.7007585579        0.6706863948
 O         -5.5116959940       -1.8442294745       -1.5497801865
 C         -4.7732637118       -0.0811917002        0.3084885136
 C         -4.7559821207        0.1025756241        1.6759024201
 C         -4.7332974117        1.3943107651        2.1770965141
 C         -4.7227740390        2.4730025214        1.3068081043
 C         -4.7429449368        2.2717131421       -0.0649261160
 C         -4.7638621981        0.9828289805       -0.5715297917
 H         -4.7855506143        0.7871436924       -1.6316857872
 H         -4.7362001581        3.1134480132       -0.7386840890
 H         -4.6992591575        3.4776908854        1.6987319436
 H         -4.7180946985        1.5544347570        3.2431061142
 H         -4.7646939981       -0.7632558514        2.3171349543
 H         -3.0298396710       -1.5739571718       -1.8604832469
 H         -2.6692144617       -2.4999881691        1.6042892093
 H         -0.9901135686       -1.4439747232        3.1029528280
 H          0.4559627701        0.3640629020        2.2470316283
 H          0.6731961045        2.1482054782        0.6284997422
 C         -0.0050619915        2.1898519255       -1.3991008059
 C         -1.2010276869        3.0787619248       -1.2351495325
 C          0.1532905179        3.6779755295       -1.4634518101
 H          0.3633633453        4.1315901355       -2.4205526471
 H          0.6455606376        4.1637600354       -0.6339760830
 H         -1.9226749385        3.1231209581       -2.0363953347
 H         -1.6324771467        3.1525542239       -0.2484669511
 H          0.0972536847        1.6403764450       -2.3273202123
