  62
        -98.93228778
 C          1.5715882745        1.6064472335       -0.1044344035
 C          2.8403297033        1.4413222413        0.5086930567
 C          3.7137373084        0.3824736453       -0.0248998010
 C          3.2661235992       -0.3745929496       -1.0411045594
 C          3.9457392918       -1.5522522276       -1.6841617811
 C          3.5239923968       -2.8653640446       -1.0017660447
 C          4.3805411770       -3.2732638339        0.1954414422
 H          3.9152364090       -4.1535165408        0.6447189307
 H          5.3711668857       -3.5706877539       -0.1548218512
 C          4.5424192639       -2.1984997979        1.2731086073
 H          4.8297611297       -2.6943650544        2.2022320971
 H          3.5833851176       -1.7084401162        1.4512172141
 C          5.6057672840       -1.1478478829        0.9210850889
 H          6.3063536386       -1.0475449012        1.7529088919
 H          6.1882417319       -1.4976562811        0.0690029667
 C          5.0607845696        0.2575617613        0.6338953729
 H          4.9604613162        0.8064494752        1.5756402188
 H          5.7927375403        0.8071017261        0.0317833084
 H          3.5640560722       -3.6711498691       -1.7374895643
 H          2.4840511354       -2.7597742182       -0.6844414476
 H          3.6099702146       -1.5746475979       -2.7231358906
 H          5.0247377852       -1.4307917464       -1.6705251805
 O          2.0457105846       -0.1802880819       -1.6074475765
 C          1.1765269168        0.8136610910       -1.1825499418
 O          0.1253247267        0.8622678459       -1.8455911704
 H         -1.6834679270        2.1004731033       -0.9288659646
 C         -1.7051027149        1.7785898314        0.0973162932
 C         -0.6286260698        2.0232991659        0.9368651994
 C         -0.7009580116        1.5444342009        2.2445435676
 C         -1.8051385227        0.8442998548        2.6931986246
 C         -2.8660265972        0.5867143848        1.8428041231
 C         -2.8040287891        1.0526741238        0.5375655265
 N         -3.8526204893        0.7569865483       -0.3545368206
 S         -4.3477199573       -0.8419931984       -0.4040336956
 O         -4.8494311074       -1.0496503213       -1.7445937300
 O         -5.2963456316       -1.0784063375        0.6573890224
 C         -2.8838251513       -1.8256337696       -0.1233500472
 C         -1.7973197760       -1.6474356486       -0.9557648899
 C         -0.6583992021       -2.4062581362       -0.7412661098
 C         -0.6232675478       -3.3259999507        0.2949106037
 C         -1.7245404534       -3.4958359110        1.1199966809
 C         -2.8660670190       -2.7390972039        0.9115333228
 H         -3.7424449233       -2.8355362009        1.5317651802
 H         -1.6947742602       -4.2123987036        1.9249777047
 H          0.2667727750       -3.9136112257        0.4595307789
 H          0.1956871611       -2.2567848253       -1.3835676606
 H         -1.8261839301       -0.9169123052       -1.7483439788
 H         -3.6850839298        1.0995910059       -1.2900851994
 H         -3.7308390912        0.0294301656        2.1645891884
 H         -1.8373703173        0.4868580822        3.7109566252
 H          0.1338354994        1.7159271693        2.9095189223
 C          0.6584956040        2.6713048832        0.4947176132
 H          1.1852124635        2.9713038658        1.4135338387
 C          0.6029592557        3.9371324708       -0.3523681368
 C         -0.0105271565        4.0566805891       -1.7144771167
 C         -0.6370665780        4.7564751988       -0.5463643368
 H         -0.5517552240        5.8315690301       -0.4914347396
 H         -1.5644701319        4.3701734284       -0.1530443909
 H          0.5164270811        4.6556326150       -2.4442541479
 H         -0.4872644954        3.1924678484       -2.1459520950
 H          1.5243977861        4.4996712205       -0.2239407337
 O          3.2275600348        2.1518317343        1.4756950532
