  62
        -98.93629510
 C         -1.8377554100       -1.1929621580       -0.0800510873
 C         -3.0045651565       -1.1298746991        0.7219337261
 C         -4.1922393446       -0.4655983217        0.1521742650
 C         -4.1123563366        0.0370106813       -1.0934692470
 C         -5.1656780037        0.7756661010       -1.8760172442
 C         -5.3493544150        2.2262954104       -1.4035417875
 C         -5.4072567278        2.4047393958        0.1111903085
 H         -4.4865819952        2.0193261848        0.5533432614
 H         -5.4402653634        3.4778458649        0.3177016374
 C         -6.6096243114        1.7597822757        0.7966579521
 H         -7.5277713871        2.1652456505        0.3658058516
 H         -6.5784857690        2.0550783447        1.8485831648
 C         -6.6755542425        0.2318089325        0.7363351971
 H         -7.4181327389       -0.0903585309        1.4721147571
 H         -7.0331686804       -0.1096420086       -0.2314600427
 C         -5.3720730963       -0.4750440061        1.0937970183
 H         -5.0017228288       -0.0855536591        2.0490411192
 H         -5.5885778727       -1.5336831422        1.2811718718
 H         -4.5060937404        2.8133236871       -1.7759909222
 H         -6.2607479159        2.6227364303       -1.8543938564
 H         -6.1069764361        0.2354307352       -1.8384000110
 H         -4.8310443711        0.7887262539       -2.9157909963
 O         -2.9690119371       -0.0414501854       -1.8298606056
 C         -1.8113419031       -0.6404486538       -1.3603089961
 O         -0.8671844393       -0.6018530480       -2.1722115731
 O         -3.0597245563       -1.6189456404        1.8827423172
 C         -0.6372222039       -1.9036470822        0.5200052443
 C          0.3361937315       -0.9368983873        1.1429914394
 C          0.8026131971       -1.1289494046        2.4380628143
 C          1.7151309328       -0.2505641626        2.9971750569
 C          2.1842670220        0.8324274680        2.2757858397
 C          1.7249945223        1.0322238841        0.9799749117
 C          0.8074906308        0.1529288753        0.4232482966
 H          0.4563499059        0.3125892293       -0.5856723035
 N          2.2041487473        2.1250396061        0.2282955717
 S          3.8634162620        2.2081896406        0.0016443425
 O          4.4877368021        2.5889902727        1.2436225182
 O          4.0571612355        3.1072345469       -1.1126278177
 C          4.3442056158        0.5498486918       -0.4413156310
 C          4.7552931239       -0.3277348863        0.5420652261
 C          5.0501532074       -1.6351571492        0.1899673866
 C          4.9325528979       -2.0394888714       -1.1306579555
 C          4.5246483572       -1.1439802347       -2.1074683184
 C          4.2193153377        0.1620761305       -1.7606373242
 H          3.8971282896        0.8877902034       -2.4904090439
 H          4.4335322599       -1.4596772854       -3.1342436779
 H          5.1578716969       -3.0586383116       -1.4012104471
 H          5.3668740053       -2.3341215018        0.9469664610
 H          4.8428198352        0.0272116188        1.5554193904
 H          1.7363138741        2.2200465822       -0.6623173382
 H          2.8988470386        1.5243178801        2.6915829515
 H          2.0641960649       -0.4095593404        4.0059749497
 H          0.4350066098       -1.9670031904        3.0117111205
 H         -1.0598135427       -2.5138406044        1.3336989317
 C          0.0333986434       -2.8609223917       -0.4574116660
 C          1.3632470778       -2.6090331343       -1.0949339681
 C          1.2332152943       -3.6550756111       -0.0316908129
 H          1.2913686998       -4.6950064694       -0.3139986575
 H          1.6549843823       -3.4322764609        0.9365988810
 H          1.4893704198       -2.9176653526       -2.1211127390
 H          1.8860121279       -1.6976502765       -0.8522374526
 H         -0.6987356447       -3.3771037521       -1.0710023415
