  62
        -98.94489240
 C         -1.9378565859       -0.4724398878       -0.6464792575
 C         -2.9959531514       -1.2986922277       -0.1965814020
 C         -4.3400550243       -0.7171491141       -0.2767557727
 C         -4.5015682060        0.5228468676       -0.7735669841
 C         -5.8114856896        1.2438521400       -0.9431079187
 C         -6.3022418766        1.9550102857        0.3254802392
 C         -6.8240101117        1.0325974159        1.4279666294
 H         -7.3323569292        1.6637906281        2.1596137974
 H         -7.5687821035        0.3545053519        1.0101368129
 C         -5.7336984341        0.2248583654        2.1457191844
 H         -4.7576857354        0.6726138673        1.9443011031
 H         -5.8929302542        0.2771466971        3.2251343160
 C         -5.6878827989       -1.2550687889        1.7653206868
 H         -6.6119745516       -1.7436391351        2.0819777841
 H         -4.8588703566       -1.7219054945        2.3031518943
 C         -5.4865596534       -1.5155494247        0.2666845883
 H         -5.2485603653       -2.5733707106        0.1311156717
 H         -6.4012993966       -1.2897543441       -0.2807536186
 H         -5.4883663859        2.5691096937        0.7180423108
 H         -7.1117011936        2.6263212953        0.0295085976
 H         -5.6532558323        1.9956079845       -1.7194225016
 H         -6.5734264371        0.5439880304       -1.2875050619
 O         -3.4596623689        1.2792810763       -1.2107779394
 C         -2.1535057722        0.8136095142       -1.1413651513
 O         -1.3003826295        1.6241183914       -1.5497664401
 H          1.7791184922        0.4543185743       -1.1508032586
 C          1.4443846039        0.5497602579       -0.1322377105
 C          0.3132436987       -0.1165824575        0.3094929403
 C         -0.0911126045        0.0583062991        1.6317555974
 C          0.6089129024        0.8910918249        2.4813106262
 C          1.7353940689        1.5604044712        2.0340951606
 C          2.1505407293        1.3906927818        0.7195214008
 N          3.2775276940        2.0755427027        0.2379189784
 S          4.4264769814        1.2957561793       -0.6904907907
 O          5.5620375387        2.1913357879       -0.6847037989
 O          3.8895820167        0.9541380028       -1.9821705036
 C          4.8141594776       -0.1781338126        0.2355389295
 C          5.7116026077       -0.0762455011        1.2810050284
 C          5.9737373646       -1.1967895989        2.0519062108
 C          5.3297404861       -2.3925986952        1.7714691916
 C          4.4318220084       -2.4780950153        0.7188912887
 C          4.1681535454       -1.3614186304       -0.0589502948
 H          3.4798053322       -1.3910587353       -0.8870983770
 H          3.9334608529       -3.4091118386        0.5003660063
 H          5.5303691510       -3.2641949483        2.3743437208
 H          6.6751729026       -1.1346702949        2.8682417907
 H          6.1978511392        0.8694372845        1.4579766799
 H          3.7182955709        2.6800142194        0.9157114064
 H          2.2798795469        2.2196026850        2.6930314607
 H          0.2786829479        1.0211362681        3.5008666190
 H         -0.9734434153       -0.4623892275        1.9782878610
 C         -0.5172667598       -1.0064029653       -0.5807949964
 H         -0.6021854425       -1.9924251002       -0.1005888773
 C          0.0477809559       -1.1916938115       -1.9721853426
 C          1.1043281089       -2.2245852172       -2.2216141992
 C         -0.2881901511       -2.4379131495       -2.7330191042
 H         -0.4686791496       -2.3601605111       -3.7946742431
 H         -0.9084009492       -3.1700615152       -2.2368175411
 H          1.8861174284       -1.9999176399       -2.9324335823
 H          1.4236119775       -2.8217854045       -1.3806302069
 H          0.0954861973       -0.2662696113       -2.5356658110
 O         -2.8241550600       -2.4641068914        0.2504343043
