  62
        -98.93652401
 C         -2.4900953844       -1.0863164979       -0.5653098118
 C         -3.5983468700       -0.8253100493        0.2836539052
 C         -4.3531103159        0.4021753075        0.0138312445
 C         -3.9915297415        1.1920276836       -1.0129663056
 C         -4.6745760503        2.4634149015       -1.4380305016
 C         -4.2341623352        3.7035562467       -0.6480691432
 C         -4.7456778048        3.7740227180        0.7913361435
 H         -4.5489094912        4.7856312015        1.1518148042
 H         -5.8265344384        3.6304281649        0.7991910717
 C         -4.0844925848        2.7722746733        1.7485641071
 H         -3.8059418901        3.2815480622        2.6738654884
 H         -3.1613801369        2.3946663844        1.3023459836
 C         -4.9677087793        1.5854106611        2.1339506318
 H         -4.3869816096        0.9223164550        2.7803686206
 H         -5.8304699341        1.9396282175        2.7024058689
 C         -5.4731872948        0.7613669678        0.9425386952
 H         -5.8989095609       -0.1695110618        1.3248676887
 H         -6.2497164399        1.3085247280        0.4083700700
 H         -3.1427028308        3.7490237176       -0.6491613122
 H         -4.6041324673        4.5796460910       -1.1856565323
 H         -5.7551104901        2.3428299273       -1.3556988270
 H         -4.4203961659        2.6163604194       -2.4891173249
 O         -2.9380739021        0.8991909358       -1.8184839495
 C         -2.1460309943       -0.2237517668       -1.6063734338
 O         -1.1975326405       -0.3161330267       -2.4093291403
 O         -3.9454169496       -1.5936284306        1.2195320438
 C         -1.7047195259       -2.3547281597       -0.2805824131
 C         -0.5058685796       -2.0743131293        0.5888899701
 C         -0.2959025093       -2.7777446194        1.7685966814
 C          0.8150798742       -2.5205644904        2.5537231962
 C          1.7377012383       -1.5598442461        2.1802962797
 C          1.5372965542       -0.8524903535        1.0018129426
 C          0.4217298440       -1.1099609066        0.2184200113
 H          0.2714238260       -0.5604336854       -0.7000068939
 N          2.4678080354        0.1392650754        0.6080554926
 S          4.0196358226       -0.4278270289        0.2405013142
 O          3.9823533217       -1.2441456899       -0.9545472182
 O          4.5690599760       -1.0533529716        1.4155859059
 C          4.8650360431        1.1053909617       -0.0830608717
 C          5.0479082373        1.5212252029       -1.3874276596
 C          5.6845580250        2.7300918153       -1.6220300199
 C          6.1204659543        3.4990699710       -0.5536973183
 C          5.9278450713        3.0682128598        0.7506745681
 C          5.2935856701        1.8602023658        0.9918562753
 H          5.1295047169        1.4814574425        1.9869528127
 H          6.2696282455        3.6688102462        1.5781294705
 H          6.6155381623        4.4391349880       -0.7394927537
 H          5.8371012498        3.0661663617       -2.6350973410
 H          4.6989962540        0.8879364684       -2.1876985251
 H          2.1268556293        0.6361276465       -0.2065420848
 H          2.6141466492       -1.3629669970        2.7749145253
 H          0.9643916660       -3.0737919936        3.4685865977
 H         -1.0155493844       -3.5237311384        2.0733146351
 H         -2.3967070683       -2.9794403828        0.3062399891
 C         -1.3543297900       -3.1350549316       -1.5410512713
 C          0.0368524510       -3.3080525073       -2.0656711792
 C         -0.6710218072       -4.4663302735       -1.4330600650
 H         -1.0081880281       -5.2767075562       -2.0612159384
 H         -0.3388012588       -4.7739088414       -0.4526830522
 H          0.1686932005       -3.2996320140       -3.1371794453
 H          0.8583496470       -2.8556245731       -1.5312472408
 H         -2.1344127280       -3.0521627893       -2.2916592221
