  62
        -98.93758760
 C         -2.2228175641       -0.8432104785       -0.0705680050
 C         -3.2642467347       -0.7441273070        0.8854600947
 C         -4.1882724785        0.3853167622        0.7242769666
 C         -3.9837503064        1.2736842612       -0.2647431481
 C         -4.7882771757        2.5169556710       -0.5385546538
 C         -6.2533274662        2.3009716106       -0.9651556114
 C         -7.2622319645        2.3497110530        0.1890267635
 H         -6.8347696100        2.9350497843        1.0040198180
 H         -8.1532371297        2.8842188950       -0.1466140321
 C         -7.7302796537        0.9930683524        0.7242037806
 H         -8.4679123807        0.5736819922        0.0362229425
 H         -8.2322362703        1.1657179470        1.6786249542
 C         -6.6388995416       -0.0590637160        0.9220013077
 H         -6.3392754325       -0.4642279525       -0.0474431957
 H         -7.0659138819       -0.8911074683        1.4852561172
 C         -5.3751127957        0.4517766035        1.6410073696
 H         -5.5224892384        1.4674283059        2.0049737772
 H         -5.1461976413       -0.1902378122        2.4938347683
 H         -6.3387801394        1.3599457372       -1.5078986531
 H         -6.4985805845        3.1010244875       -1.6654553691
 H         -4.2563779245        3.0357836332       -1.3388023652
 H         -4.7591640524        3.1546261582        0.3479825067
 O         -2.9508815066        1.1607041891       -1.1439406548
 C         -2.0568592698        0.1017550485       -1.0828180132
 O         -1.1859782596        0.1243022917       -1.9747079455
 O         -3.4120210945       -1.5609486527        1.8327862205
 C         -1.2464900156       -2.0015616728        0.0542922726
 C          0.0996188439       -1.4468398197        0.4481220812
 C          0.3350902793       -1.1206053898        1.7812166959
 C          1.5349873012       -0.5545315465        2.1672514587
 C          2.5226419936       -0.2933106411        1.2326898348
 C          2.2893569103       -0.5961656043       -0.1013126706
 C          1.0908594954       -1.1854561335       -0.4840135343
 H          0.9193970193       -1.4046013392       -1.5258459473
 N          3.2793215087       -0.3300307888       -1.0615262292
 S          4.0918330337        1.1359747670       -1.0047272946
 O          3.2816398138        2.1850462082       -0.4299245620
 O          4.5678198240        1.3552734984       -2.3534128690
 C          5.4884936515        0.7940035076        0.0482666272
 C          6.2725514772       -0.3044862392       -0.2458386104
 C          7.3671216156       -0.5802027376        0.5578148382
 C          7.6602439596        0.2440125357        1.6341362047
 C          6.8662771813        1.3455115534        1.9137871381
 C          5.7690466693        1.6261827689        1.1141535546
 H          5.1198485921        2.4678015438        1.2973830168
 H          7.0956133352        1.9858507720        2.7503684547
 H          8.5123690237        0.0267827008        2.2586296449
 H          7.9866665229       -1.4360338280        0.3433182890
 H          6.0122736353       -0.9182488917       -1.0918111770
 H          2.9894319184       -0.5418864731       -2.0055167773
 H          3.4561348586        0.1589584979        1.5248129236
 H          1.7051361411       -0.3110255326        3.2050035263
 H         -0.4435936892       -1.3058116641        2.5079860836
 H         -1.6232328764       -2.6067759921        0.8897950717
 C         -1.2166003589       -2.8589558289       -1.1933719239
 C         -0.5845298275       -4.2165288093       -1.1329240227
 C         -2.0720287220       -4.0871677167       -1.2581401979
 H         -2.5355589256       -4.3415125040       -2.1996244930
 H         -2.6807034035       -4.3177540932       -0.3962381633
 H         -0.0247066703       -4.5641348058       -1.9876513372
 H         -0.1812937152       -4.5334175997       -0.1831664533
 H         -1.1068210711       -2.2863261173       -2.1064966923
