  62
        -98.93995978
 C         -1.5919459597       -1.6781837720       -0.4572750440
 C         -0.5015816336       -1.6978028674       -1.3615749794
 C          0.6960125959       -2.4544347177       -0.9649206766
 C          0.7251719452       -3.0428042888        0.2450082175
 C          1.7898455533       -3.8864710078        0.9136456286
 C          3.2264262914       -3.8842532385        0.3977762092
 C          3.9583677854       -2.5530803202        0.5544866146
 H          4.0752749831       -2.3387163114        1.6199672805
 H          4.9565322812       -2.6630066044        0.1235920610
 C          3.2721667486       -1.3493913154       -0.0879014792
 H          2.3475624002       -1.1197713892        0.4475457408
 H          3.9280735336       -0.4825317218        0.0400326421
 C          2.9768185427       -1.4963314427       -1.5798535054
 H          3.8829863495       -1.8131402499       -2.1000207766
 H          2.7041683097       -0.5073293257       -1.9535101846
 C          1.8356327048       -2.4654149319       -1.9435624800
 H          1.4152407654       -2.1477864510       -2.9021825885
 H          2.2051879103       -3.4813358859       -2.0701734241
 H          3.7676190218       -4.6302244747        0.9864096925
 H          3.2589450825       -4.2117838593       -0.6371919485
 H          1.7878029735       -3.5763960036        1.9637377655
 H          1.4147926642       -4.9162294357        0.8935513161
 O         -0.3420304996       -2.9926666317        1.0892916889
 C         -1.5071932829       -2.2990220207        0.7889097155
 O         -2.3564699665       -2.3439426711        1.6976837070
 H         -1.4840579827        0.2326413479        1.2416072941
 C         -1.7625953397        0.9842576840        0.5188574954
 C         -2.4647869002        0.6231596756       -0.6216692050
 C         -2.8112476085        1.6159540956       -1.5308597591
 C         -2.4576799260        2.9343575895       -1.3015299894
 C         -1.7099238590        3.2800574980       -0.1895560105
 C         -1.3484816880        2.2920453822        0.7182296231
 N         -0.5137460052        2.5640886288        1.8235831467
 S          0.9740399328        1.7812267371        1.7957597220
 O          0.7885067349        0.3561698532        1.8685125319
 O          1.7353492127        2.3873273762        2.8665933536
 C          1.6691137108        2.2535463195        0.2225623277
 C          2.5456535947        3.3206954356        0.1748196390
 C          3.0171674502        3.7482563029       -1.0556296015
 C          2.5918447154        3.1168618500       -2.2152025505
 C          1.7085424366        2.0506842945       -2.1507617291
 C          1.2434602874        1.6093833984       -0.9215246252
 H          0.5661285699        0.7733190436       -0.8483711411
 H          1.3676288033        1.5511756270       -3.0442258580
 H          2.9506176964        3.4548629218       -3.1744808064
 H          3.7081693652        4.5741039757       -1.1075018914
 H          2.8455729035        3.7823149345        1.1018179423
 H         -0.3633396767        3.5508329882        1.9868171079
 H         -1.3968706614        4.3008243648       -0.0304448990
 H         -2.7392869964        3.6964907911       -2.0115587881
 H         -3.3418156517        1.3462508382       -2.4318955226
 C         -2.7844829825       -0.8310188344       -0.8709702458
 H         -2.8732901992       -0.9605363188       -1.9622942599
 C         -4.1033774362       -1.2600281016       -0.2501162380
 C         -4.7413399975       -0.5243900008        0.8859895282
 C         -5.3489164397       -0.4562141013       -0.4811438529
 H         -6.2733567308       -0.9833219512       -0.6614402995
 H         -5.2550775120        0.4732867390       -1.0211493393
 H         -4.2369064443        0.3496775339        1.2689308196
 H         -5.2275072920       -1.1097799808        1.6510271259
 H         -4.2138758729       -2.3390988533       -0.2428655757
 O         -0.5339692682       -1.1029750872       -2.4740830056
