  62
        -98.93791825
 C         -2.1376406456       -1.2413250581       -0.1501946871
 C         -2.5898086753       -0.0937608344       -0.8389654724
 C         -3.9805946037        0.3322132716       -0.5782100756
 C         -4.7316587646       -0.3890305224        0.2747394011
 C         -6.1459224035       -0.1285364530        0.7203176269
 C         -6.2408031518        1.0081260689        1.7511633456
 C         -5.3948518166        2.2381583059        1.4321600349
 H         -4.3489839919        1.9403935434        1.3356235107
 H         -5.4600848723        2.9169296845        2.2867289944
 C         -5.8183283012        3.0140731324        0.1872365810
 H         -5.1860664178        3.9038929433        0.1295627316
 H         -6.8512504371        3.3485281572        0.3077268967
 C         -5.7030939468        2.2637357890       -1.1411962972
 H         -5.8035662889        3.0029340852       -1.9414875421
 H         -6.5224844548        1.5610784422       -1.2668144877
 C         -4.3669317759        1.5619539136       -1.3642083290
 H         -3.5540077416        2.2817527782       -1.2133694069
 H         -4.2993821405        1.2705562055       -2.4195405867
 H         -5.9073676919        0.6173309025        2.7156068783
 H         -7.2880226546        1.2989735841        1.8491409081
 H         -6.7772686315        0.0736782299       -0.1396603157
 H         -6.5028723695       -1.0499784637        1.1856383134
 O         -4.2510762878       -1.4945338186        0.9133493707
 C         -2.9590619421       -1.9434983039        0.7307449434
 O         -2.6618536603       -2.9574176970        1.3945824381
 H          1.2697261637       -0.4917962110       -1.8118876786
 C          1.2019654985       -0.1339567289       -0.7968406093
 C          0.2536325723       -0.6623916790        0.0633626411
 C          0.1954607401       -0.1777410029        1.3679093991
 C          1.0481112088        0.8234583159        1.7904776686
 C          1.9805283612        1.3641990629        0.9218895441
 C          2.0532733131        0.8816993606       -0.3772702149
 N          3.0017448475        1.4192699093       -1.2613555891
 S          4.5566546424        1.6750784978       -0.7048206320
 O          4.6119200137        2.9000927276        0.0532664497
 O          5.3924021933        1.6234557726       -1.8836398770
 C          4.8967062566        0.2872916352        0.3644523677
 C          4.8682882028       -0.9794099515       -0.1849906929
 C          5.0960219937       -2.0714277403        0.6360756519
 C          5.3456972624       -1.8796915393        1.9865728350
 C          5.3751743841       -0.6017272603        2.5221250030
 C          5.1469471159        0.4943805993        1.7053884190
 H          5.1596023428        1.5044659401        2.0812882067
 H          5.5713447974       -0.4555251027        3.5721156076
 H          5.5189509428       -2.7322148057        2.6242040073
 H          5.0754572682       -3.0666936319        0.2218898049
 H          4.6784723430       -1.0945433379       -1.2399260065
 H          2.9933020358        1.0067464832       -2.1820004005
 H          2.6398774474        2.1601935228        1.2274330458
 H          0.9850374852        1.1918386440        2.8032056530
 H         -0.5382287639       -0.5955914135        2.0442244891
 C         -0.7173793870       -1.7427134522       -0.3457072410
 H         -0.5990298470       -2.5866499168        0.3485950951
 C         -0.5238132807       -2.2457517914       -1.7604211662
 C          0.5476694036       -3.2507094246       -2.0569019203
 C         -0.8934600358       -3.6612243676       -2.0820459711
 H         -1.3558232015       -3.8691158251       -3.0354186177
 H         -1.2688784492       -4.2719726567       -1.2738695142
 H          1.1546943714       -3.5895097693       -1.2312786236
 H          1.0753047723       -3.1831249869       -2.9964749498
 H         -0.7443944459       -1.4921707883       -2.5077272722
 O         -1.8707805113        0.5596764133       -1.6404581493
