  62
        -98.94356125
 C         -1.9549335790       -1.4406815694        0.1747105179
 C         -2.1633849118       -0.4784651480        1.1965978678
 C         -3.1305564603        0.5830963135        0.9023657361
 C         -3.7512747217        0.6038070098       -0.2912404511
 C         -4.8039473456        1.5865752788       -0.7275384208
 C         -4.2465503659        2.9087310078       -1.2713091844
 C         -3.6575979790        3.8462134426       -0.2169390106
 H         -3.5147995522        4.8170334498       -0.6955784286
 H         -4.3796599564        3.9849950025        0.5883183835
 C         -2.3152294778        3.3802502635        0.3635190302
 H         -1.8762802747        2.6244442742       -0.2915819655
 H         -1.6245631433        4.2254061625        0.3916738680
 C         -2.3946029972        2.8153731911        1.7817851519
 H         -2.6928507027        3.6045039884        2.4758535344
 H         -1.3982851026        2.4701614128        2.0697370922
 C         -3.3643938997        1.6377190120        1.9418407093
 H         -3.1923469368        1.1825099258        2.9204557777
 H         -4.3948450983        1.9905729828        1.8984114862
 H         -3.4891165274        2.6845153165       -2.0256577875
 H         -5.0689001867        3.4273042210       -1.7695607047
 H         -5.3710495628        1.0987294983       -1.5232756299
 H         -5.4793909707        1.7902079703        0.1041949337
 O         -3.5002983883       -0.3160055053       -1.2575488428
 C         -2.5894460604       -1.3463496373       -1.0647361624
 O         -2.4600088464       -2.0861835893       -2.0579628276
 O         -1.5777791729       -0.5176199578        2.3124543278
 C         -0.9826148175       -2.5690598630        0.4792398226
 C          0.3646521968       -2.2561765190       -0.1257589909
 C          0.6459506954       -2.4789006190       -1.4690436801
 C          1.8892795456       -2.1577185707       -1.9839391845
 C          2.8730797398       -1.6111331488       -1.1783409544
 C          2.5952591461       -1.3669013269        0.1601686496
 C          1.3469901142       -1.6896809939        0.6755131403
 H          1.1270259754       -1.4894848530        1.7157485694
 N          3.5840203477       -0.8130249310        0.9934216943
 S          4.4281750325        0.5325057374        0.4700155362
 O          5.3426735951        0.1495166391       -0.5754963984
 O          5.0207757925        1.0902835933        1.6637924372
 C          3.1852933608        1.6347441326       -0.1758978537
 C          2.4182238978        2.3452348592        0.7261153597
 C          1.4150067994        3.1717618081        0.2490130480
 C          1.1890430600        3.2645904117       -1.1159080863
 C          1.9665254854        2.5435953888       -2.0084868858
 C          2.9761707198        1.7194119506       -1.5371812493
 H          3.6078054311        1.1516862647       -2.2000942667
 H          1.7888517742        2.6194354750       -3.0692381163
 H          0.4035774997        3.9050678732       -1.4852492206
 H          0.8111709995        3.7355881911        0.9418319783
 H          2.6275013057        2.2532286703        1.7799231667
 H          3.2820178418       -0.6889510325        1.9488854316
 H          3.8502755116       -1.3717686224       -1.5649552813
 H          2.0976997606       -2.3395940464       -3.0274227498
 H         -0.1221640584       -2.8822604800       -2.1093048055
 H         -0.8651592250       -2.5535067354        1.5714498778
 C         -1.4977241342       -3.9352407259        0.0766578392
 C         -0.8545995429       -5.1520883237        0.6689295298
 C         -2.2411196542       -4.7607987423        1.0816738324
 H         -3.0711623988       -5.3614840864        0.7412325361
 H         -2.3815060177       -4.3440071401        2.0685276740
 H         -0.7295668469       -6.0241028635        0.0457740389
 H         -0.0528249781       -4.9989466704        1.3757064445
 H         -1.8328972237       -3.9911810703       -0.9501952445
