  62
        -98.93879433
 C         -1.8981073841       -0.2003974099       -0.0811521486
 C         -2.9437912049       -1.0694204557        0.3038402191
 C         -4.2684058508       -0.4614456839        0.5353108198
 C         -4.4010458709        0.8704013098        0.3913759703
 C         -5.6481912675        1.7017614577        0.5335278817
 C         -6.5857646263        1.5726108638       -0.6780866951
 C         -6.7799861750        0.1483653881       -1.1920169693
 H         -7.3688446814        0.2050232779       -2.1114049442
 H         -5.8081623283       -0.2725233788       -1.4563983486
 C         -7.5005480046       -0.7971689026       -0.2338718145
 H         -7.6443289612       -1.7441912898       -0.7603502860
 H         -8.4887166280       -0.3911161844       -0.0062342199
 C         -6.7812048096       -1.0913123132        1.0841040032
 H         -7.2827741367       -1.9481281751        1.5435522016
 H         -6.8853917212       -0.2637865985        1.7806154314
 C         -5.3122721587       -1.4757738290        0.9373062828
 H         -4.9654255871       -1.8937976682        1.8900706027
 H         -5.2273304904       -2.2965161382        0.2160391896
 H         -7.5533551374        2.0021919224       -0.4131721628
 H         -6.1652474617        2.1656858940       -1.4939875400
 H         -6.1653339087        1.4458257302        1.4534305927
 H         -5.3237243267        2.7417248064        0.6123809957
 O         -3.3573312591        1.6730638918        0.0342883267
 C         -2.0917635854        1.1736874812       -0.2137306460
 O         -1.2512588902        2.0355581612       -0.5341564991
 O         -2.7846128640       -2.3120470257        0.4478579444
 C         -0.5220734627       -0.7838185037       -0.3510382810
 C          0.4800487643       -0.1660662460        0.5911731123
 C          0.2833046323       -0.3234634985        1.9618771527
 C          1.1489105732        0.2507539567        2.8709496033
 C          2.2372941773        0.9860910332        2.4331487800
 C          2.4452640327        1.1473946596        1.0692908798
 C          1.5724334064        0.5666675734        0.1570819699
 H          1.7484714353        0.7265983504       -0.8927104232
 N          3.5296635562        1.9072105796        0.6023927076
 S          4.4851047855        1.3658921759       -0.6560723196
 O          5.6524774787        2.2185586264       -0.6144766147
 O          3.7434101807        1.3583107572       -1.8902352642
 C          4.9340350485       -0.2949557105       -0.1865436888
 C          6.0071017061       -0.4671663502        0.6664904095
 C          6.3279601349       -1.7457977361        1.0917512345
 C          5.5674406780       -2.8247557461        0.6666555964
 C          4.4931706135       -2.6348878749       -0.1886052086
 C          4.1696889492       -1.3584518458       -0.6216981561
 H          3.3450918779       -1.1736050833       -1.2898329270
 H          3.9037803251       -3.4749062377       -0.5200751475
 H          5.8143816491       -3.8200704909        1.0009138976
 H          7.1658736751       -1.8972618509        1.7530164807
 H          6.5773765671        0.3978091015        0.9642600774
 H          4.0986906829        2.3119057529        1.3314115575
 H          2.9114067607        1.4433016894        3.1414729361
 H          0.9789933655        0.1249994012        3.9295989849
 H         -0.5697106839       -0.8948719120        2.3017033418
 H         -0.6097927639       -1.8531613764       -0.1089763758
 C         -0.1632737170       -0.6447649907       -1.8145629110
 C          0.7820861149       -1.6180610478       -2.4505014506
 C         -0.6773611660       -1.6602601188       -2.7888412242
 H         -0.9934733923       -1.3237425061       -3.7648568460
 H         -1.2706461209       -2.4714876829       -2.3927020170
 H          1.4738837349       -1.2520875937       -3.1950440539
 H          1.1729334952       -2.4096225349       -1.8287775445
 H         -0.1330063289        0.3873565304       -2.1463682355
