  62
        -98.94531294
 C          1.7009097486       -0.8630339675       -0.1731946843
 C          2.7593505922       -0.5729453709       -1.0663211328
 C          3.4830680205        0.6823891489       -0.8232568625
 C          3.0899350292        1.4836652660        0.1838465826
 C          3.7692681914        2.7632469214        0.5755261369
 C          4.8495438852        2.5155558542        1.6379010796
 C          5.8064543670        1.3745484253        1.2923590502
 H          6.5411905223        1.3115179396        2.0978699741
 H          5.2526757916        0.4329192082        1.2883230725
 C          6.5330563297        1.5395933121       -0.0497657519
 H          6.4843212598        2.5803266696       -0.3724458113
 H          7.5876847036        1.2931647891        0.0900935965
 C          6.0102376704        0.6375110658       -1.1692746881
 H          6.7230275802        0.6750868029       -1.9974196229
 H          5.9715643275       -0.3968994033       -0.8183261508
 C          4.6329508304        1.0064210602       -1.7348454807
 H          4.4750214934        0.4114394770       -2.6394945706
 H          4.6203524821        2.0624120529       -2.0133507741
 H          5.4156333131        3.4386622275        1.7754269217
 H          4.3571207941        2.2749082725        2.5828343597
 H          4.2118514715        3.2193811650       -0.3080703847
 H          3.0183644550        3.4414575975        0.9847767236
 O          2.0429951163        1.1918118301        0.9967701015
 C          1.3323432540        0.0049779541        0.8553367663
 O          0.4131712567       -0.1410461189        1.6796551406
 O          3.0810187141       -1.3268897365       -2.0250650118
 C          0.9394193558       -2.1631398874       -0.3413917635
 C         -0.5400779821       -1.9359373314       -0.5380018201
 C         -1.4926498219       -2.8572103446       -0.1170794980
 C         -2.8404645369       -2.6275862645       -0.3323135523
 C         -3.2723818260       -1.4700079366       -0.9528106196
 C         -2.3298493932       -0.5363799638       -1.3640572199
 C         -0.9784220216       -0.7832848515       -1.1751292793
 H         -0.2523694431       -0.0533710319       -1.5119727663
 N         -2.7581411289        0.6677165364       -1.9476750888
 S         -4.0493875448        1.4577054053       -1.2281050074
 O         -5.2819919073        0.9616499718       -1.7906084336
 O         -3.7936797143        2.8667757087       -1.4373932756
 C         -3.9892607456        1.0537172931        0.5101666502
 C         -5.1334011098        0.5963325974        1.1331479784
 C         -5.0787452764        0.2656306366        2.4773616095
 C         -3.8832207913        0.3839401448        3.1695239301
 C         -2.7432312902        0.8467658777        2.5308552515
 C         -2.7967231256        1.1931521680        1.1909111882
 H         -1.9142736049        1.5472966992        0.6819241314
 H         -1.8006193852        0.9174055911        3.0494192565
 H         -3.8358297125        0.1112073587        4.2119903552
 H         -5.9641443293       -0.0928040291        2.9773002010
 H         -6.0358070430        0.5006078549        0.5512388371
 H         -2.0085116016        1.3136209411       -2.1469667836
 H         -4.3182252012       -1.2717480925       -1.1240709427
 H         -3.5658409392       -3.3563812207       -0.0054398185
 H         -1.1770382800       -3.7587257618        0.3816485084
 H          1.3380477478       -2.6164302624       -1.2622632848
 C          1.2392025023       -3.0886792167        0.8226327027
 C          1.3564097140       -4.5684009917        0.6155635453
 C          2.5819756669       -3.7509144776        0.8879891682
 H          3.0666943851       -3.8446794311        1.8482292104
 H          3.2647424773       -3.5645264151        0.0714829257
 H          1.0001449746       -5.2274702344        1.3929516922
 H          1.2174285274       -4.9481448547       -0.3854805714
 H          0.8114166947       -2.7329953581        1.7532900481
