  62
        -98.94264066
 C          1.9663998556        1.4131097675        0.1822507479
 C          1.6917681331        0.0324153430        0.3330499235
 C          2.8549795457       -0.8214305603        0.6126678912
 C          4.0748164505       -0.2739442621        0.7528630091
 C          5.3522169343       -1.0154111991        1.0387696390
 C          6.0190454560       -1.6069833930       -0.2109663730
 C          5.3151993554       -2.8247338949       -0.8118532534
 H          6.0021312388       -3.2643172786       -1.5378135549
 H          5.1476760119       -3.5677851547       -0.0315717944
 C          3.9891408646       -2.5085471260       -1.5181488709
 H          3.9343149802       -1.4377122620       -1.7285160950
 H          3.9574728155       -3.0233198468       -2.4811222650
 C          2.7407846827       -2.9253273891       -0.7400883005
 H          1.8621207114       -2.6205526108       -1.3148768198
 H          2.7173749526       -4.0128563692       -0.6417269480
 C          2.6355848288       -2.3034390451        0.6584067558
 H          1.6257366459       -2.4759004738        1.0381438561
 H          3.3492065430       -2.7737749512        1.3342225983
 H          6.1005248072       -0.8231480778       -0.9678289444
 H          7.0325451069       -1.9025955783        0.0699636351
 H          6.0383468003       -0.2929012939        1.4858967885
 H          5.1632959443       -1.8089304735        1.7622125976
 O          4.2871160275        1.0665831822        0.6649265033
 C          3.2489251219        1.9355579012        0.3689024705
 O          3.5873021122        3.1347271285        0.3133734862
 O          0.5456798350       -0.4756330725        0.2434979278
 C          0.8691259054        2.4074173562       -0.1527464942
 C         -0.3663822113        2.1254306328        0.6675371505
 C         -0.2695035488        2.1831177503        2.0561728549
 C         -1.3719683769        1.9438766819        2.8521914209
 C         -2.5972796751        1.6470884458        2.2807640782
 C         -2.7078042419        1.5935317573        0.8968040572
 C         -1.5965709762        1.8359366516        0.0987776573
 H         -1.7070451613        1.7631519486       -0.9697240975
 N         -3.9535084051        1.3440537827        0.2952222542
 S         -4.1666947994        0.2144324163       -0.9184776279
 O         -3.2942303784        0.5045247330       -2.0262134353
 O         -5.5861917345        0.2557589972       -1.1979713887
 C         -3.7653379674       -1.3601083312       -0.1813549542
 C         -2.4462349539       -1.6796316967        0.0700289741
 C         -2.1632709691       -2.8914891645        0.6818640621
 C         -3.1894381051       -3.7553322357        1.0301834831
 C         -4.5092830357       -3.4162103462        0.7721186336
 C         -4.8018189677       -2.2066473551        0.1641310664
 H         -5.8117663967       -1.9022705211       -0.0588133797
 H         -5.3078499447       -4.0879767055        1.0433351180
 H         -2.9588480990       -4.6961780147        1.5049676437
 H         -1.1337089718       -3.1423885574        0.8818572991
 H         -1.6537482956       -0.9985522768       -0.1958061464
 H         -4.7174232851        1.2741936434        0.9524439779
 H         -3.4613318548        1.4618306066        2.9009265741
 H         -1.2786640974        1.9864811927        3.9270033821
 H          0.6895811263        2.4118763313        2.5019205148
 H          1.2629795029        3.3880358938        0.1635410406
 C          0.5788218834        2.5147602745       -1.6428105026
 C          1.6465097925        2.2701712018       -2.6659105821
 C          0.5052074217        1.3099021153       -2.5295372356
 H         -0.2528819842        1.2840880682       -3.2990437360
 H          0.6943318913        0.3476947291       -2.0805777479
 H          1.6815449575        2.9129911516       -3.5326618015
 H          2.6203601903        1.9633664326       -2.3120225803
 H         -0.1145685581        3.3211514656       -1.8633023952
