  62
        -98.93922241
 C         -2.4198181244       -1.0007571519        0.0432741981
 C         -2.2518247077        0.3508467755       -0.3440626701
 C         -3.1943322586        1.3085901950        0.2504986291
 C         -4.1154999175        0.8903403175        1.1361824612
 C         -5.1208990759        1.7532764960        1.8488215751
 C         -6.3915983052        2.0332187794        1.0346637615
 C         -6.2154549064        3.0055075269       -0.1324475796
 H         -7.2154868908        3.2778527183       -0.4757025642
 H         -5.7347486168        3.9167776588        0.2246971657
 C         -5.4255161662        2.4348320042       -1.3185342949
 H         -5.3903066095        1.3455568887       -1.2426373172
 H         -5.9441149766        2.6733921922       -2.2498907000
 C         -3.9985330644        2.9681179708       -1.4455063672
 H         -4.0253637777        4.0397288291       -1.6552447712
 H         -3.5216082572        2.4705666595       -2.2937927259
 C         -3.1244109961        2.7349472439       -0.2063742257
 H         -2.0866984165        2.9488485888       -0.4732622931
 H         -3.4244544213        3.4066170804        0.5974391006
 H         -6.7838431696        1.0839653172        0.6624140372
 H         -7.1317499785        2.4522103249        1.7202635500
 H         -5.4046681658        1.2139574403        2.7550884938
 H         -4.6564432329        2.6966806213        2.1371770387
 O         -4.2253339200       -0.4117700623        1.5096776376
 C         -3.4054525791       -1.3811314572        0.9614041590
 O         -3.6462018869       -2.5366850566        1.3648553731
 H          0.4373590462       -0.3142247503       -0.5637487390
 C          0.6984425764       -1.1670456197        0.0457894971
 C         -0.2234895665       -2.1920239304        0.2027487863
 C          0.1180022937       -3.2744508074        1.0046125107
 C          1.3512172691       -3.3248081732        1.6309205573
 C          2.2652241730       -2.2976606352        1.4775924473
 C          1.9316084065       -1.2095513275        0.6813407666
 N          2.8314773026       -0.1294694761        0.5408984539
 S          4.3739206349       -0.4678324875       -0.0575275070
 O          4.2911175163       -0.9623113160       -1.4158748268
 O          5.0576584744       -1.3195579643        0.8816591482
 C          5.0937238945        1.1610344791       -0.0366781425
 C          5.1190635966        1.9099266479       -1.1971885666
 C          5.6573905459        3.1866912536       -1.1592021524
 C          6.1547843555        3.6905123464        0.0330359656
 C          6.1214516251        2.9264556793        1.1902104667
 C          5.5854924067        1.6491124262        1.1586053849
 H          5.5452367616        1.0169606206        2.0301200290
 H          6.5106456451        3.3217417286        2.1146065895
 H          6.5730669534        4.6843428937        0.0596639884
 H          5.6863015299        3.7821872556       -2.0575584417
 H          4.7286948585        1.4754310003       -2.1036959000
 H          2.4212080645        0.6000487758       -0.0293826103
 H          3.2312887374       -2.3323163066        1.9535164368
 H          1.6036122015       -4.1727815291        2.2498172589
 H         -0.5955470113       -4.0741189481        1.1433052462
 C         -1.5636259214       -2.1386115752       -0.4925463385
 H         -2.1058889901       -3.0591617224       -0.2383765706
 C         -1.3907616351       -2.0882011452       -1.9987969380
 C         -1.0157923670       -3.3416221269       -2.7278588378
 C         -2.3938752460       -2.7710561885       -2.8764212950
 H         -2.6628312346       -2.3038736051       -3.8119054338
 H         -3.2127095916       -3.2848707319       -2.3936863934
 H         -0.3334933786       -3.2682470470       -3.5609362908
 H         -0.9004621328       -4.2432137302       -2.1451616598
 H         -0.9741673513       -1.1556052671       -2.3554412737
 O         -1.3680780879        0.7681612865       -1.1406440620
