  62
        -98.94498700
 C          1.8808957685        0.7128878583       -0.1977548667
 C          2.4594830479        0.1522004590        0.9654008105
 C          3.5192538756       -0.8368338741        0.7398683951
 C          3.8469014387       -1.1881207038       -0.5171348253
 C          4.8877224842       -2.2016835026       -0.9090486503
 C          6.3167576565       -1.6432938286       -0.9534960871
 C          6.9471277440       -1.3594968928        0.4105884485
 H          6.8597291625       -2.2450044944        1.0410351066
 H          8.0114013785       -1.1845688743        0.2410704380
 C          6.3575248065       -0.1444530830        1.1403471717
 H          5.8048327753        0.4742488189        0.4296315634
 H          7.1682800785        0.4707388789        1.5369703770
 C          5.4389934092       -0.4926865322        2.3116064275
 H          5.0500431411        0.4388998312        2.7304108003
 H          6.0138290148       -0.9978192366        3.0909553296
 C          4.2439578254       -1.3783183334        1.9351540302
 H          4.5759758007       -2.3997209044        1.7497674600
 H          3.5438401567       -1.3846905932        2.7743742061
 H          6.3159258236       -0.7295495479       -1.5522141216
 H          6.9373316225       -2.3786161796       -1.4708211536
 H          4.6218758222       -2.5481686982       -1.9101633220
 H          4.8488751639       -3.0512109485       -0.2263979034
 O          3.2332524564       -0.6602176538       -1.6094783487
 C          2.2506197757        0.3124946345       -1.4820648062
 O          1.7924027313        0.7230457043       -2.5642760117
 O          2.0994221279        0.4556147067        2.1351852414
 C          0.7980618370        1.7652158731       -0.0451306556
 C         -0.4926681140        1.2804399047       -0.6583963845
 C         -1.2836370282        2.0583146544       -1.4930609927
 C         -2.4554215220        1.5475996167       -2.0258166952
 C         -2.8690685153        0.2621780655       -1.7315496483
 C         -2.0961270923       -0.5170986605       -0.8789970211
 C         -0.9251360668       -0.0028967813       -0.3448696592
 H         -0.3232720333       -0.6142028035        0.3164359821
 N         -2.5148836286       -1.8185612009       -0.5572750287
 S         -4.1302337027       -2.0635937214       -0.1985829140
 O         -4.1519383243       -3.2122624476        0.6799148340
 O         -4.8852288824       -2.1933447671       -1.4200871422
 C         -4.6470991971       -0.5961855362        0.6755604956
 C         -5.6690068550        0.1823457230        0.1718287096
 C         -6.0334060362        1.3329314260        0.8529274800
 C         -5.3700451680        1.6849171561        2.0178459277
 C         -4.3475968684        0.8900304050        2.5135979866
 C         -3.9807870675       -0.2624339086        1.8382037798
 H         -3.1922551645       -0.9026513670        2.2009597464
 H         -3.8317516188        1.1645827888        3.4198257155
 H         -5.6502002862        2.5834315415        2.5445286770
 H         -6.8292124991        1.9517452473        0.4710269072
 H         -6.1550372529       -0.1266137887       -0.7392203655
 H         -1.9134645783       -2.2964163351        0.0967873452
 H         -3.7675927993       -0.1557666777       -2.1555380109
 H         -3.0530107050        2.1589568239       -2.6843769800
 H         -0.9779053226        3.0619536696       -1.7374729022
 H          0.6418712951        1.8651529089        1.0396188712
 C          1.2714749579        3.0952081955       -0.5924465905
 C          0.7529961056        4.3780292460       -0.0165380676
 C          2.1621554866        3.9491952354        0.2578310155
 H          2.9698056926        4.4855633070       -0.2174219121
 H          2.4044400454        3.5832790430        1.2450761500
 H          0.5942316923        5.2142168930       -0.6805645142
 H          0.0382122871        4.3113240338        0.7894208207
 H          1.4829826138        3.0557759499       -1.6550941217
