  62
        -98.93626908
 C         -2.5325657131       -0.3191487416        0.6265771266
 C         -2.1587853519        0.2458559102       -0.6158809763
 C         -1.9930319672        1.7120926060       -0.6525711882
 C         -2.1457615415        2.4269276979        0.4767729800
 C         -2.0781760746        3.9174577945        0.7397616930
 C         -1.5156385165        4.8714138103       -0.3096100511
 C         -0.0122779236        4.7362823218       -0.5508055953
 H          0.2581423034        5.3725827414       -1.3963059984
 H          0.5151532812        5.1095597872        0.3306152141
 C          0.4903834930        3.3195297347       -0.8183233185
 H          1.5752957594        3.3635341989       -0.9537500577
 H          0.3160991756        2.6835813438        0.0530380050
 C         -0.0929208589        2.6326588542       -2.0512222754
 H          0.4548176240        1.6950596637       -2.1808160711
 H          0.0801380658        3.2510034370       -2.9351601271
 C         -1.5904972703        2.2921540469       -1.9778126990
 H         -2.2050756402        3.1558491556       -2.2232320405
 H         -1.7935372767        1.5192836748       -2.7254267216
 H         -2.0635901890        4.7701452657       -1.2416950739
 H         -1.7002481245        5.8840994242        0.0591241551
 H         -3.1048982937        4.2224491692        0.9715429270
 H         -1.5070463664        4.0284570761        1.6671297209
 O         -2.4677379733        1.8315946620        1.6636150750
 C         -2.6416998332        0.4651303094        1.7744812167
 O         -2.8894603786        0.0740249812        2.9339670067
 H         -0.1378317859       -1.2218975881        1.1259356217
 C         -0.2513603885       -2.0542210845        0.4464624664
 C         -1.5259560724       -2.5239963876        0.1527214470
 C         -1.6534631875       -3.5975714965       -0.7177239541
 C         -0.5298691356       -4.1632004092       -1.2962571335
 C          0.7310889263       -3.6582202479       -1.0405864554
 C          0.8693511962       -2.5864711257       -0.1656242271
 N          2.1394192617       -2.0370620362        0.1219867907
 S          2.2956137610       -0.3626072780       -0.0807553513
 O          1.5412374045        0.3213103862        0.9381009609
 O          2.0145333814       -0.0075502584       -1.4540115665
 C          4.0394808466       -0.1782955213        0.2438426291
 C          4.9148192710        0.0465061228       -0.8009847413
 C          6.2694705977        0.1592806399       -0.5284474358
 C          6.7226556188        0.0425065421        0.7766455550
 C          5.8313067034       -0.1830174021        1.8155239388
 C          4.4760285944       -0.2948878469        1.5496742719
 H          3.7448112672       -0.4619274532        2.3235637287
 H          6.1868441370       -0.2711789700        2.8294558248
 H          7.7769374781        0.1294829676        0.9867189239
 H          6.9640281010        0.3371753658       -1.3335295181
 H          4.5147687231        0.1357712641       -1.7982180589
 H          2.8636911580       -2.4875718391       -0.4249982670
 H          1.6020800174       -4.0812619489       -1.5189134403
 H         -0.6413858643       -4.9952507216       -1.9751895214
 H         -2.6311892731       -3.9766851078       -0.9660442450
 C         -2.6875462274       -1.8198188523        0.8117437927
 H         -2.5980181008       -1.9772615113        1.9002720624
 C         -4.0466429426       -2.3698714947        0.4049640392
 C         -5.2542453995       -1.4837262073        0.3467303116
 C         -4.6749059924       -2.0442400787       -0.9155109324
 H         -5.2230953618       -2.8214043654       -1.4278781701
 H         -4.1319796586       -1.3835175280       -1.5722926597
 H         -6.1944760459       -1.8766811246        0.7036304379
 H         -5.1130868788       -0.4323763195        0.5528719295
 H         -4.2102727676       -3.3719715646        0.7893063836
 O         -1.9854341394       -0.4292452008       -1.6645072453
