  62
        -98.93570011
 C         -1.6736004917       -0.4175750064       -0.1657410042
 C         -2.7977857319       -1.1930163675        0.2100657756
 C         -4.1317562496       -0.6714323313       -0.1455459988
 C         -4.2118172848        0.5142887807       -0.7766281106
 C         -5.4470537652        1.2637312130       -1.2001206010
 C         -6.1572778670        1.9485795478       -0.0211293279
 C         -6.2883682516        1.0928154884        1.2361308972
 H         -5.2944027629        0.7814111390        1.5623790608
 H         -6.7050083861        1.7245889595        2.0250729611
 C         -7.1859794628       -0.1345516191        1.0979492650
 H         -7.2580921882       -0.5963087661        2.0860147433
 H         -8.1890726107        0.1862163976        0.8080001213
 C         -6.7124324032       -1.2019988970        0.1092466165
 H         -6.9182853440       -0.9061428672       -0.9159813346
 H         -7.3035491343       -2.1033402823        0.2961525688
 C         -5.2484492131       -1.6040475159        0.2580585984
 H         -5.0816565893       -2.5268828486       -0.3108965251
 H         -5.0543310515       -1.8724585868        1.3027057036
 H         -7.1469496417        2.2671525918       -0.3528747100
 H         -5.5860165180        2.8420029687        0.2429025909
 H         -5.1207010926        2.0332797145       -1.9033220477
 H         -6.1245641245        0.5992097807       -1.7281705887
 O         -3.1044562904        1.2459166614       -1.0869510387
 C         -1.8182905178        0.8180802156       -0.7969868701
 O         -0.9318144393        1.6195109908       -1.1458555827
 O         -2.6976027323       -2.2846704607        0.8319483834
 C         -0.3006627409       -0.9561611605        0.1940328463
 C          0.5477464740        0.1245641028        0.8122729048
 C          0.1904775838        0.6269417112        2.0612863737
 C          0.9326164154        1.6258025171        2.6599471850
 C          2.0613661154        2.1294628445        2.0368767333
 C          2.4249736099        1.6366476499        0.7900121586
 C          1.6695041405        0.6410818811        0.1846667112
 H          1.9443728776        0.3127346988       -0.8029082973
 N          3.5619758563        2.1247436933        0.1338217833
 S          4.4788983268        1.1231193281       -0.8315418748
 O          5.7957042016        1.7258177702       -0.8220503995
 O          3.8773909939        0.9626169120       -2.1311238787
 C          4.5255839061       -0.4480003679        0.0155825902
 C          4.9256870338       -0.4772350671        1.3369672015
 C          4.9573816418       -1.6924907924        2.0011721266
 C          4.5945400092       -2.8536646700        1.3360107489
 C          4.2044590149       -2.8097204666        0.0067560987
 C          4.1676580483       -1.5958383023       -0.6610815749
 H          3.8630740638       -1.5147042036       -1.6924742652
 H          3.9246872978       -3.7138590665       -0.5105379716
 H          4.6162807940       -3.7986683637        1.8553855883
 H          5.2623924357       -1.7308297597        3.0344282863
 H          5.2092098322        0.4403446550        1.8258491521
 H          4.1219302342        2.7795456630        0.6581715990
 H          2.6453468377        2.9084304419        2.5028065164
 H          0.6371668686        2.0118807818        3.6238584670
 H         -0.6890212323        0.2305924653        2.5502814459
 H         -0.5026283710       -1.7138812327        0.9696159046
 C          0.4057596574       -1.6798917817       -0.9420158458
 C         -0.3656333814       -2.4284082179       -1.9859487707
 C          0.3784172756       -1.1814248302       -2.3544156327
 H          1.2772998709       -1.2670689218       -2.9483906276
 H         -0.1841115121       -0.2835870910       -2.5588868514
 H          0.0178586026       -3.3781869753       -2.3267340573
 H         -1.4440024231       -2.3827263299       -1.9405707289
 H          1.3327263718       -2.1366289162       -0.6077413696
