  62
        -98.94499077
 C          1.8798820486        0.7109136634       -0.1971497403
 C          2.4575993080        0.1418093039        0.9624003305
 C          3.5252025934       -0.8373434815        0.7309126970
 C          3.8592480106       -1.1743334983       -0.5283209924
 C          4.9075198977       -2.1776401505       -0.9266763005
 C          6.3335192729       -1.6108360629       -0.9609049577
 C          6.9577937643       -1.3353756703        0.4076741273
 H          6.8745703603       -2.2271712127        1.0297693132
 H          8.0213578869       -1.1517406611        0.2429140079
 C          6.3579023939       -0.1310200603        1.1466484366
 H          7.1633551775        0.4858015850        1.5514362860
 H          5.8033145328        0.4904883950        0.4398503356
 C          5.4381498538       -0.4961608644        2.3117887726
 H          6.0138519749       -1.0052376100        3.0879811252
 H          5.0422099908        0.4289276691        2.7383826921
 C          4.2497981526       -1.3855514908        1.9232124623
 H          4.5889350888       -2.4029650846        1.7289957692
 H          3.5471640917       -1.4045446051        2.7601254791
 H          6.9600023531       -2.3381988536       -1.4823614031
 H          6.3297413532       -0.6919408707       -1.5516874665
 H          4.8711765332       -3.0342720928       -0.2527937551
 H          4.6469840740       -2.5155666398       -1.9321124282
 O          3.2453518982       -0.6401999861       -1.6174310853
 C          2.2557584439        0.3245441303       -1.4839799411
 O          1.7980590867        0.7418583067       -2.5638053968
 O          2.0904539333        0.4301367785        2.1338060201
 C          0.7887236300        1.7538549344       -0.0375043768
 C         -0.4961081283        1.2603389891       -0.6560070039
 C         -1.2799985225        2.0237368187       -1.5102599296
 C         -2.4445137110        1.5016911995       -2.0481551544
 C         -2.8576664666        0.2194752006       -1.7396911068
 C         -2.0921912582       -0.5449055035       -0.8670491878
 C         -0.9284150671       -0.0196262357       -0.3283108208
 H         -0.3320225115       -0.6186865114        0.3489067782
 N         -2.5132459043       -1.8417436963       -0.5290217560
 S         -4.1310249957       -2.0731439965       -0.1693625789
 O         -4.1598026136       -3.2021284918        0.7342061930
 O         -4.8830033086       -2.2277706025       -1.3898201631
 C         -4.6453228756       -0.5845041370        0.6696208646
 C         -5.6588057781        0.1887506520        0.1412492626
 C         -6.0216099694        1.3559765281        0.7942223408
 C         -5.3646164531        1.7296802021        1.9560349850
 C         -4.3505092341        0.9400373910        2.4766061800
 C         -3.9855294737       -0.2291548018        1.8295191261
 H         -3.2035030934       -0.8657302816        2.2121689478
 H         -3.8395905674        1.2316977943        3.3802858003
 H         -5.6432402762        2.6411366308        2.4608905336
 H         -6.8110101932        1.9707109763        0.3928324821
 H         -6.1398143026       -0.1376132304       -0.7664168363
 H         -1.9158753048       -2.3093252904        0.1362877510
 H         -3.7505219208       -0.2073582592       -2.1668716880
 H         -3.0365870298        2.1016970718       -2.7219470928
 H         -0.9744693326        3.0245605936       -1.7661484839
 H          0.6305110180        1.8435371151        1.0477615521
 C          1.2503985093        3.0923262368       -0.5735532943
 C          0.7080763132        4.3646276487        0.0037062582
 C          2.1204432306        3.9543802276        0.2898430241
 H          2.9247690972        4.5047025359       -0.1749335782
 H          2.3584484839        3.5871221683        1.2776249135
 H          0.5437088188        5.2020097200       -0.6573939568
 H         -0.0137377344        4.2831395997        0.8019910499
 H          1.4729231164        3.0614275310       -1.6341907473
