  62
        -98.93494826
 C          1.7255231127        0.3734638756       -0.4317716346
 C          2.9166709571        0.4637652802       -1.1922175587
 C          4.1889303205        0.4432884318       -0.4488373273
 C          4.1634319280        0.3760079772        0.8951129224
 C          5.2812459847        0.3786635191        1.9171799388
 C          6.7323512070        0.1795318907        1.4879400696
 C          7.0581126961       -1.2214516520        0.9702857017
 H          8.0817401914       -1.2167460466        0.5895961708
 H          7.0193737870       -1.9187081490        1.8110219872
 C          6.1267205993       -1.7575682001       -0.1139766138
 H          6.4596415547       -2.7665924809       -0.3719287794
 H          5.1136767793       -1.8454173800        0.2838535148
 C          6.0849945704       -0.9393996199       -1.4029233099
 H          5.5080764375       -1.5087346989       -2.1369651255
 H          7.0967015384       -0.8190810005       -1.7951831115
 C          5.4378434598        0.4507205857       -1.2827763597
 H          5.1341482124        0.7696591065       -2.2843237324
 H          6.1468149808        1.1854304442       -0.9086637438
 H          7.3463069140        0.3532125328        2.3759112305
 H          7.0158197911        0.9329662616        0.7588964233
 H          5.2023421558        1.3395677131        2.4375571601
 H          5.0164943992       -0.3893333057        2.6509759295
 O          2.9883153764        0.3404749551        1.5882921328
 C          1.7503214077        0.3364016090        0.9619266827
 O          0.7885690747        0.3018815961        1.7504787045
 O          2.9195561567        0.5705617571       -2.4480916763
 C          0.4061563463        0.3924776682       -1.1810712591
 C         -0.5468354797        1.3732499870       -0.5459780266
 C         -0.1377303298        2.6953352186       -0.3845621298
 C         -0.9706438965        3.6275808929        0.2003342094
 C         -2.2433966826        3.2700654607        0.6117779233
 C         -2.6662082964        1.9589864546        0.4439705190
 C         -1.8171373127        1.0186122245       -0.1235633313
 H         -2.1589937932        0.0020163500       -0.2164774787
 N         -3.9491509035        1.5532728987        0.8453468277
 S         -4.8503450205        0.6040054191       -0.1984973755
 O         -4.5445609717        0.8995492867       -1.5792917057
 O         -6.2244042568        0.8151716184        0.2060440103
 C         -4.3957796059       -1.0736683368        0.1838249562
 C         -4.1416961769       -1.9555502451       -0.8478350298
 C         -3.8339050328       -3.2725030380       -0.5442897905
 C         -3.7875413788       -3.6820959591        0.7796566094
 C         -4.0452094076       -2.7834413455        1.8039216310
 C         -4.3563290620       -1.4663273552        1.5068581752
 H         -4.5628933288       -0.7412034365        2.2761149345
 H         -4.0038978997       -3.1055649647        2.8319254468
 H         -3.5456619931       -4.7068992614        1.0139543628
 H         -3.6305183958       -3.9718141354       -1.3398410069
 H         -4.1802227769       -1.5914726930       -1.8623169449
 H         -4.5117546736        2.2812146172        1.2614875653
 H         -2.8999473740        3.9989538329        1.0628714310
 H         -0.6329629550        4.6451721538        0.3291093596
 H          0.8529997221        2.9787236412       -0.7144000002
 H          0.6668276030        0.7815607525       -2.1804880694
 C         -0.2065756677       -0.9831131672       -1.3991152798
 C          0.6469463203       -2.2141901745       -1.4411142184
 C         -0.2985234090       -1.9974053088       -0.2998084343
 H         -1.1856897086       -2.6109523709       -0.2424965068
 H          0.1055925246       -1.7241639903        0.6619292716
 H          0.4116341263       -2.9751623937       -2.1698166617
 H          1.7053315270       -2.0958917308       -1.2594359628
 H         -1.0346676415       -0.9492163627       -2.1015097964
