  62
        -98.94738625
 C         -2.5654690735       -0.1323223361       -0.4014424976
 C         -2.1732088603       -0.7034725660        0.8333663718
 C         -1.7324315210       -2.1045378815        0.7797886481
 C         -1.7082203910       -2.7430265737       -0.4040330689
 C         -1.2556849994       -4.1597362670       -0.6095959899
 C          0.2386953591       -4.2336045816       -0.9484028365
 C          1.1344514640       -3.4519067860        0.0129534040
 H          2.1689178379       -3.6313239825       -0.2907723632
 H          0.9540791312       -2.3808266018       -0.1112639136
 C          0.9626789408       -3.8256993709        1.4918663251
 H          0.4807550702       -4.8011684007        1.5756739364
 H          1.9524884412       -3.9103547473        1.9450324106
 C          0.1848615513       -2.7962434687        2.3143792597
 H          0.3395850670       -3.0179174499        3.3741538657
 H          0.5897057230       -1.8000689561        2.1203009189
 C         -1.3295758247       -2.7551037087        2.0729623392
 H         -1.7752083943       -2.1446781843        2.8640454878
 H         -1.7432090591       -3.7642506348        2.1416518074
 H          0.5375504261       -5.2839587143       -0.9532219404
 H          0.3876773210       -3.8306064341       -1.9530579383
 H         -1.8267326573       -4.5823208141       -1.4385341028
 H         -1.4629338714       -4.7334190045        0.2918617063
 O         -2.0806361516       -2.1567956802       -1.5719886308
 C         -2.4994539904       -0.8374135867       -1.6014314750
 O         -2.7945445547       -0.4154480644       -2.7401235302
 O         -2.2076011213       -0.0805406762        1.9273478566
 C         -3.0048863546        1.3197392580       -0.4592817104
 C         -1.8915080900        2.2092506202        0.0407028123
 C         -2.1004097726        3.3204304804        0.8477149934
 C         -1.0275756443        4.0803357016        1.2816414590
 C          0.2684712265        3.7429620088        0.9374125406
 C          0.4860376883        2.6420815330        0.1167699024
 C         -0.5918350294        1.9028712680       -0.3397818281
 H         -0.4110288811        1.0507531971       -0.9796155940
 N          1.7855049059        2.2626310348       -0.2727779700
 S          2.0933940904        0.5975833473       -0.2933119929
 O          1.6412351926        0.0530282778       -1.5501666527
 O          1.5694509772       -0.0121914954        0.9056540498
 C          3.8761580967        0.5952571066       -0.2581700677
 C          4.5378979642        0.2558113344        0.9061485845
 C          5.9239126585        0.2859775145        0.9220624830
 C          6.6194637979        0.6560078709       -0.2189391887
 C          5.9407667201        0.9925984001       -1.3811677864
 C          4.5556554767        0.9624701274       -1.4045612303
 H          3.9846829864        1.2057611256       -2.2854740901
 H          6.4848151602        1.2769489299       -2.2673209016
 H          7.6975941220        0.6797544264       -0.2037121425
 H          6.4538572418        0.0210286023        1.8226845961
 H          3.9532787468       -0.0299521493        1.7658957938
 H          2.5004570074        2.7515085719        0.2504661307
 H          1.1044938014        4.3226428200        1.2985323495
 H         -1.2029526839        4.9382357099        1.9130075427
 H         -3.1018874373        3.5847598443        1.1457649503
 H         -3.1678119554        1.5447655697       -1.5244628981
 C         -4.3099181847        1.5110821482        0.2857765863
 C         -5.2899915541        2.5540390603       -0.1583452420
 C         -5.5872225223        1.1027262926       -0.3824696789
 H         -6.3538127709        0.6318750016        0.2142298721
 H         -5.5146208650        0.7120980975       -1.3874025332
 H         -5.8586561119        3.0804580831        0.5933102729
 H         -5.0274950242        3.1536361924       -1.0168808752
 H         -4.2134630296        1.3123092830        1.3469205032
