  62
        -98.93954139
 C          2.5520184880        0.3052374649        0.1038366406
 C          2.3196039187        1.4072290538       -0.7506228955
 C          1.5439951915        2.5141437238       -0.1786227083
 C          1.1176445147        2.4342803415        1.0947335087
 C          0.2751937285        3.4513184649        1.8160684066
 C         -1.1532604046        3.6109411825        1.2579019183
 C         -1.3153403301        4.7811063076        0.2790284378
 H         -2.2635367317        5.2818259291        0.4849626049
 H         -0.5268934248        5.5100314309        0.4712854066
 C         -1.3179480524        4.4155630577       -1.2084063998
 H         -2.2950651532        4.0052646156       -1.4729348839
 H         -1.1805028099        5.3383654418       -1.7771371101
 C         -0.2686301212        3.3967152307       -1.6573610655
 H         -0.5887765400        2.3899289323       -1.3763368935
 H         -0.2327730696        3.4074448524       -2.7491466271
 C          1.1489804166        3.6323705224       -1.0993683406
 H          1.2089651802        4.5920296620       -0.5879912921
 H          1.8711969392        3.6295132610       -1.9187439992
 H         -1.4607409204        2.6721402687        0.7930104357
 H         -1.8143491701        3.7797351402        2.1096386072
 H          0.7864791286        4.4164247673        1.8050273719
 H          0.2216958089        3.1084327761        2.8510703543
 O          1.4286414048        1.3894720970        1.9088219546
 C          2.1008359263        0.2804905105        1.4241053363
 O          2.2558565055       -0.6341185001        2.2570738603
 O          2.7298790881        1.4552777492       -1.9434264293
 C          3.1686886331       -0.9569428810       -0.4713517993
 C          2.1509277604       -2.0699279101       -0.3760390059
 C          2.4657015902       -3.3755480260       -0.0223222338
 C          1.4665306889       -4.3263609171        0.1017555956
 C          0.1391259778       -3.9948445319       -0.0985533677
 C         -0.1835620135       -2.6950444557       -0.4719385162
 C          0.8225504443       -1.7599600164       -0.6385890569
 H          0.5549978155       -0.7558805909       -0.9352182244
 N         -1.5171121499       -2.2990567342       -0.6886506973
 S         -1.9421257879       -0.7524425448       -0.1446613681
 O         -1.6104600907        0.2090070791       -1.1665372630
 O         -1.3916219337       -0.5123334534        1.1690914041
 C         -3.7148212182       -0.9246081347       -0.0484079381
 C         -4.2869630046       -1.3187209812        1.1464940864
 C         -5.6612472847       -1.4877196895        1.2085313310
 C         -6.4355047838       -1.2628727115        0.0799922179
 C         -5.8472242852       -0.8656119865       -1.1115253743
 C         -4.4735183607       -0.6946719924       -1.1802172627
 H         -3.9711503922       -0.3798133578       -2.0799934643
 H         -6.4523624451       -0.6880353473       -1.9857460084
 H         -7.5046064528       -1.3953096333        0.1308554825
 H         -6.1210906900       -1.7924218000        2.1347665591
 H         -3.6451533604       -1.4704828783        1.9999087481
 H         -2.1821110425       -2.9901576306       -0.3672070207
 H         -0.6400677688       -4.7300030522        0.0344945108
 H          1.7242926572       -5.3360313914        0.3836709911
 H          3.4910809496       -3.6446508204        0.1724416518
 H          3.3501332091       -0.7387181293       -1.5349848341
 C          4.4879277874       -1.2862544370        0.1935678027
 C          5.5641162451       -1.9976377508       -0.5698224038
 C          5.7178442684       -0.5454188411       -0.2353470160
 H          6.4358271507       -0.2598100594        0.5185093600
 H          5.6055174736        0.1792364221       -1.0286043133
 H          6.1825815916       -2.7100444893       -0.0450389053
 H          5.3584133042       -2.2603480109       -1.5965066982
 H          4.3751367048       -1.5027243954        1.2498694946
