  62
        -98.94027853
 C         -2.5878992715       -1.1724139890        0.3223901195
 C         -2.5860457510       -0.3847807285       -0.8558277501
 C         -3.4935452205        0.7717715620       -0.8490915097
 C         -4.2592621504        1.0230135819        0.2272738503
 C         -5.2496268299        2.1467492523        0.3698302208
 C         -4.6253453493        3.4747233918        0.8200424714
 C         -3.7844846589        4.1900101518       -0.2382983482
 H         -4.3652602988        4.2890839025       -1.1557369883
 H         -3.5896712884        5.1974439316        0.1348004022
 C         -2.4429149492        3.5100392413       -0.5468989184
 H         -2.1982846696        2.8085219209        0.2546053513
 H         -1.6495947988        4.2607604010       -0.5658681680
 C         -2.3990780494        2.7696729219       -1.8839105287
 H         -1.4198174596        2.2934281915       -1.9803839989
 H         -2.5086778390        3.4853436323       -2.7015237884
 C         -3.4706087799        1.6825122825       -2.0392961093
 H         -4.4494650997        2.1363252330       -2.1920697692
 H         -3.2211373701        1.0794021127       -2.9155128195
 H         -5.4435756890        4.1368918620        1.1122706916
 H         -4.0150079695        3.2906101011        1.7075734013
 H         -5.7771048398        2.2921911729       -0.5731639092
 H         -5.9705289501        1.8315127523        1.1273403806
 O         -4.2257716809        0.2465894814        1.3439738500
 C         -3.3690903614       -0.8396065591        1.4312618396
 O         -3.3913203018       -1.4189873595        2.5365896094
 O         -1.8724997710       -0.6205745184       -1.8631449102
 C         -1.6678219320       -2.3707210895        0.4768574591
 C         -0.2796980818       -2.0235793599       -0.0069180206
 C          0.4382015679       -2.7909093899       -0.9137858309
 C          1.7174595081       -2.4181180103       -1.2895454306
 C          2.3058148686       -1.2773539208       -0.7771742101
 C          1.5975287089       -0.5017826709        0.1317636402
 C          0.3237548087       -0.8857566504        0.5170697199
 H         -0.2253448311       -0.2816723605        1.2312153501
 N          2.1857716994        0.6713629486        0.6461569007
 S          3.6419754392        0.4911409476        1.4673510808
 O          3.7284483686       -0.8026157427        2.1060384202
 O          3.7324344097        1.6433953472        2.3380010813
 C          4.8774869494        0.6249228576        0.1931325409
 C          4.8959452900        1.7679454879       -0.5820517186
 C          5.8577130601        1.8881005379       -1.5724462184
 C          6.7808995897        0.8712916175       -1.7671546588
 C          6.7510235891       -0.2681734828       -0.9777680793
 C          5.7905323389       -0.3956584228        0.0136390106
 H          5.7231584585       -1.2653839030        0.6473037702
 H          7.4695011987       -1.0573304831       -1.1306372496
 H          7.5279721298        0.9677185975       -2.5390820887
 H          5.8839185006        2.7723745781       -2.1886571981
 H          4.1628525703        2.5352027682       -0.3965111483
 H          1.5495298496        1.2280915987        1.1988133009
 H          3.2967634987       -0.9782061511       -1.0774745599
 H          2.2610853679       -3.0222753003       -1.9997325809
 H         -0.0089079625       -3.6722643295       -1.3426874113
 H         -1.6029022822       -2.5390591400        1.5656544290
 C         -2.2137334826       -3.6578458289       -0.1246699815
 C         -3.6850096627       -3.8535806182       -0.3346686417
 C         -2.7721638225       -3.7144897581       -1.5137571216
 H         -2.5725330729       -4.5922431379       -2.1108951019
 H         -2.7931333320       -2.7957854778       -2.0776525312
 H         -4.1068883432       -4.8236782381       -0.1180811922
 H         -4.3410143023       -3.0298554680       -0.0921757814
 H         -1.6623525730       -4.5287536194        0.2164109182
