  62
        -98.93708085
 C          1.1475876215        1.4307548139        0.7850547655
 C          2.0759869780        1.2538867289       -0.2699981112
 C          3.1483669712        0.2802200519       -0.0179359596
 C          3.1913149934       -0.3700289053        1.1585805809
 C          4.2004737129       -1.4192861373        1.5234528817
 C          3.6946235937       -2.8258114503        1.1752371735
 C          3.1457808267       -2.9576737460       -0.2459225911
 H          2.8674991423       -4.0050160423       -0.3871289652
 H          2.2210847659       -2.3802019180       -0.3288652723
 C          4.1254194985       -2.5366803398       -1.3503626747
 H          4.0834947875       -3.2787980967       -2.1505636424
 H          5.1442269758       -2.5374576277       -0.9601073697
 C          3.8266135143       -1.1786713890       -1.9885439632
 H          2.7726096916       -1.1369615593       -2.2767041321
 H          4.4210567062       -1.0949957196       -2.9024970811
 C          4.1386552335        0.0490498556       -1.1235267155
 H          5.1537993512       -0.0258558041       -0.7285280070
 H          4.0813783936        0.9323836405       -1.7662795050
 H          4.5153827580       -3.5319821879        1.3174580841
 H          2.8928671786       -3.0897657501        1.8691100249
 H          5.1323538309       -1.2171552649        0.9988312115
 H          4.3796751266       -1.3649022747        2.5989049973
 O          2.2845867231       -0.1692569307        2.1489676579
 C          1.2225909370        0.7026486145        1.9702709957
 O          0.4230186240        0.7442735674        2.9297606946
 O          2.0101083681        1.8654498543       -1.3660097750
 C         -0.0329100265        2.3768784236        0.6027059268
 C         -0.7903394147        1.9633266861       -0.6413425322
 C         -1.3750801641        2.7817619370       -1.5996030422
 C         -2.0637817738        2.2342727855       -2.6712828119
 C         -2.2123627626        0.8684564936       -2.8140690294
 C         -1.6440707131        0.0356426900       -1.8568781788
 C         -0.9564303718        0.5890956284       -0.7927888625
 H         -0.5034855944       -0.0763345059       -0.0756742317
 N         -1.7460535470       -1.3599855216       -1.9453136494
 S         -1.7754177719       -2.2929016106       -0.5606356270
 O         -0.4675367726       -2.3502762818        0.0420409246
 O         -2.3207863438       -3.5592431704       -1.0027896278
 C         -2.9495678265       -1.4829518220        0.5112881961
 C         -4.2720002614       -1.4853378615        0.1089139682
 C         -5.2143437385       -0.8338842386        0.8863463402
 C         -4.8203134862       -0.1877843404        2.0488131419
 C         -3.4919377152       -0.1996475829        2.4427004348
 C         -2.5441954346       -0.8533351248        1.6697052464
 H         -1.5043828158       -0.8678846252        1.9592040235
 H         -3.1745875501        0.2999174512        3.3443515147
 H         -5.5511965377        0.3255974856        2.6533564914
 H         -6.2491345733       -0.8282844909        0.5843526483
 H         -4.5401832958       -2.0086999775       -0.7944049136
 H         -2.3634725037       -1.7077550165       -2.6629976296
 H         -2.7457896610        0.4503506275       -3.6534887610
 H         -2.4966560715        2.8930220504       -3.4089010117
 H         -1.2970591641        3.8519265617       -1.5444942602
 H         -0.7053750797        2.1722227363        1.4542993343
 C          0.4791247190        3.7980903258        0.7938805167
 C          0.9020490469        4.7250002540       -0.3008773562
 C         -0.2978997085        5.0555475718        0.5374980367
 H         -0.1999837937        5.8526269005        1.2601380242
 H         -1.2849670930        4.9848059480        0.1120580815
 H          1.8052388050        5.2986364907       -0.1510316946
 H          0.7763022464        4.3906797954       -1.3173554777
 H          1.0993686180        3.8211955655        1.6883644940
