  62
        -98.93710628
 C         -0.6826927996       -1.2481169905        0.7935011691
 C         -1.1251436596       -0.7254940624       -0.4464659831
 C         -2.1841151736        0.2945412704       -0.3660834226
 C         -2.5529292595        0.7826694854        0.8297542066
 C         -3.5936894166        1.8391498040        1.0895693703
 C         -5.0448184765        1.4488195578        0.7455049240
 C         -5.4979013205        1.8725910342       -0.6573131552
 H         -6.5284369119        2.2287951614       -0.5988456659
 H         -4.8928034063        2.7201348574       -0.9808942179
 C         -5.4655351590        0.7804355496       -1.7311506999
 H         -6.3306369402        0.1264292164       -1.5999205427
 H         -5.5672082525        1.2666409853       -2.7037739240
 C         -4.2200923110       -0.1067802896       -1.7493678765
 H         -4.2329042251       -0.6917643936       -2.6711557176
 H         -4.2707351622       -0.8257980440       -0.9278579730
 C         -2.8857027406        0.6577631242       -1.6419264435
 H         -2.2194809353        0.3670644335       -2.4560959833
 H         -3.0579030565        1.7300880074       -1.7001262231
 H         -5.1746483285        0.3751799669        0.8803945726
 H         -5.6875897151        1.9446648276        1.4747569325
 H         -3.5281346569        2.0580331704        2.1573170667
 H         -3.3261365725        2.7459221363        0.5436369150
 O         -1.9659254716        0.3785467363        1.9913334319
 C         -1.0617484037       -0.6698661435        2.0068860557
 O         -0.6610761687       -0.9812411288        3.1475100618
 H          2.1072816336       -0.5277412680        0.9883680050
 C          2.2694277350       -1.1614174648        0.1276463589
 C          1.4135997872       -2.2322841904       -0.0986458151
 C          1.6466101526       -3.0541405809       -1.1932444036
 C          2.7051292104       -2.7952623216       -2.0455234550
 C          3.5455305495       -1.7190555325       -1.8283657889
 C          3.3242016200       -0.8953721136       -0.7297872428
 N          4.1690448090        0.1922581997       -0.4749028711
 S          3.7032314188        1.4728135542        0.4715252790
 O          4.6445342354        2.5202224747        0.1325671336
 O          3.6785896248        1.0876986753        1.8612727020
 C          2.0747483372        1.9787590478       -0.0540465826
 C          1.1852999095        2.4126103203        0.9077765276
 C         -0.0397182373        2.9221040280        0.5113345604
 C         -0.3555703623        2.9803520643       -0.8364743742
 C          0.5380450064        2.5209111735       -1.7900487618
 C          1.7695154656        2.0215075312       -1.3991576554
 H          2.4844164000        1.6686491478       -2.1242563464
 H          0.2807078726        2.5531302810       -2.8362456342
 H         -1.3036808591        3.3892551780       -1.1466009148
 H         -0.7382905189        3.2682055083        1.2566235504
 H          1.4660177563        2.3398714369        1.9471795074
 H          4.8084390174        0.4465716593       -1.2117952917
 H          4.3660152255       -1.5141446267       -2.4986056439
 H          2.8727899512       -3.4355108681       -2.8981945295
 H          0.9836027806       -3.8791280685       -1.3943782929
 C          0.2751468620       -2.4243476576        0.8703941052
 H          0.6951875824       -2.3851780790        1.8893693702
 C         -0.4089271568       -3.7773017389        0.7312164878
 C         -1.8043223779       -3.9875804288        1.2368849014
 C         -1.5280245688       -4.0193175617       -0.2347789737
 H         -1.5691374482       -4.9726340902       -0.7410344727
 H         -1.8572882874       -3.1892982145       -0.8393741253
 H         -2.0335462315       -4.9143624513        1.7411364892
 H         -2.3208893177       -3.1306882702        1.6453363840
 H          0.2857241391       -4.5967573368        0.8888874644
 O         -0.6860683194       -1.0876499626       -1.5662106456
