  62
        -98.93845910
 C         -1.5667831464       -1.5560640772        0.3382617849
 C         -1.5410516098       -0.4425948695       -0.5348852409
 C         -2.5118641299        0.6241617863       -0.2433262578
 C         -3.3228826271        0.5194356776        0.8243825700
 C         -4.3252239154        1.5380422811        1.2987718767
 C         -5.5211153922        1.8032113197        0.3636433262
 C         -5.3272371511        2.9875243997       -0.5914908455
 H         -6.2682509258        3.5365234097       -0.6645933587
 H         -4.5986764669        3.6735767351       -0.1577482269
 C         -4.9069998285        2.6314750335       -2.0209276553
 H         -4.5637755963        3.5475216650       -2.5067813611
 H         -5.7811077533        2.2763209310       -2.5716038540
 C         -3.8200289260        1.5643480776       -2.1517186599
 H         -4.2479863999        0.5788149679       -1.9529772968
 H         -3.4810639255        1.5491827971       -3.1896060094
 C         -2.6092118682        1.7623091064       -1.2186577507
 H         -1.6867858440        1.7582062575       -1.8033017278
 H         -2.6832084847        2.7156096284       -0.6968610609
 H         -5.7552932451        0.8970895694       -0.1945644552
 H         -6.3792947218        2.0190252649        1.0020274507
 H         -3.8058631371        2.4784653863        1.4960762346
 H         -4.6973182204        1.1561983732        2.2515492613
 O         -3.2945214111       -0.5567136893        1.6564799880
 C         -2.4349310625       -1.6161115145        1.4324105528
 O         -2.5316937671       -2.5396326214        2.2640783012
 O         -0.7550881062       -0.3248661466       -1.5116997580
 C         -0.6147848413       -2.7301884731        0.1616863376
 C          0.7755446627       -2.2321433191        0.4693915067
 C          1.1990348574       -2.1533315050        1.7932558225
 C          2.4276381892       -1.6042513649        2.1107057005
 C          3.2467976586       -1.0936757059        1.1180440906
 C          2.8235182644       -1.1547207343       -0.2026046602
 C          1.6102773129       -1.7475284622       -0.5244932613
 H          1.2958113512       -1.7809991551       -1.5549610506
 N          3.6113642149       -0.5713769191       -1.2114090226
 S          4.1916252604        0.9680693018       -0.9014276162
 O          4.2509701302        1.6257498197       -2.1888312146
 O          5.4494209938        0.8680744916       -0.2008480545
 C          2.9961327766        1.7702013198        0.1597425715
 C          3.4559232216        2.4367816027        1.2782532777
 C          2.5459424471        3.0702455445        2.1086886988
 C          1.1927969383        3.0195979249        1.8126113957
 C          0.7468147605        2.3465642589        0.6862441152
 C          1.6524466196        1.7199477593       -0.1549732119
 H          1.3055516900        1.1858900392       -1.0258497378
 H         -0.3057009368        2.2897223492        0.4572593686
 H          0.4802514912        3.5032569101        2.4621303295
 H          2.8925881648        3.5944753860        2.9846719835
 H          4.5151914153        2.4376462481        1.4784787156
 H          3.1802635050       -0.6096594359       -2.1242699800
 H          4.1984126173       -0.6410104927        1.3467654016
 H          2.7460488171       -1.5586295806        3.1409109604
 H          0.5424182810       -2.5146564451        2.5724387770
 H         -0.8952218027       -3.4643183301        0.9278480489
 C         -0.7512503603       -3.3723764377       -1.2029583669
 C         -0.1320991920       -4.7153375125       -1.4440629953
 C         -1.6222083477       -4.5808241106       -1.3600426597
 H         -2.2017099199       -4.6835457109       -2.2653904137
 H         -2.1212510799       -4.9564146184       -0.4786133803
 H          0.3132425151       -4.9145181954       -2.4068599493
 H          0.3824413564       -5.1811732182       -0.6172107055
 H         -0.7495865924       -2.6604949371       -2.0187315683
