  62
        -98.94229312
 C         -0.6462234472       -1.4314253068        0.5372041874
 C         -1.1305737560       -0.8543951445       -0.6580936583
 C         -2.1812273533        0.1737423209       -0.5190934179
 C         -2.5731534026        0.5359048900        0.7165154316
 C         -3.6880557744        1.4730538444        1.0970274309
 C         -5.0756308430        0.8292027736        0.9267498119
 C         -5.2608279531        0.0171115338       -0.3530546893
 H         -4.4992892786       -0.7639039116       -0.3956490837
 H         -6.2314907499       -0.4821844240       -0.2903661819
 C         -5.2345285562        0.8238708124       -1.6492058884
 H         -5.4370264416        0.1285633926       -2.4678508735
 H         -6.0439027879        1.5573184451       -1.6296484475
 C         -3.9260017363        1.5547707770       -1.9545986148
 H         -3.9801313489        1.8977867625       -2.9917327862
 H         -3.8290806707        2.4435798515       -1.3383480243
 C         -2.6716153330        0.6926704467       -1.8484570402
 H         -2.7912413025       -0.1903019636       -2.4860700848
 H         -1.8275949780        1.2464855890       -2.2762957848
 H         -5.8294692368        1.6168813161        0.9727648816
 H         -5.2403892055        0.1556736749        1.7714445219
 H         -3.5503218705        1.7176010772        2.1525151826
 H         -3.6178441652        2.3938133862        0.5272802449
 O         -2.0113363334        0.0116718019        1.8447169426
 C         -1.0574534596       -0.9843158928        1.7906983622
 O         -0.6576225175       -1.3826117025        2.9054266437
 H          1.6333218763       -0.2434235448        0.5614305868
 C          2.1133161195       -0.9224164432       -0.1286196807
 C          1.5761341274       -2.1897839510       -0.3145878187
 C          2.2139903422       -3.0612345183       -1.1884785362
 C          3.3554613072       -2.6640136215       -1.8626324336
 C          3.8861846180       -1.4017107957       -1.6762464073
 C          3.2567360671       -0.5225946390       -0.8005731355
 N          3.7540030004        0.7711471832       -0.6209947052
 S          3.3009794147        1.7702663767        0.6235394732
 O          4.2237605562        2.8824275290        0.5288131434
 O          3.2764954959        1.0873253404        1.8963510843
 C          1.6767346466        2.3457423204        0.1813626821
 C          0.7208690046        2.4909795683        1.1658720514
 C         -0.5100057843        3.0326916805        0.8323640204
 C         -0.7630599995        3.4127595443       -0.4758256826
 C          0.2022903363        3.2475966781       -1.4566444066
 C          1.4374653125        2.7145609205       -1.1272246224
 H          2.2136920440        2.5813970806       -1.8622474270
 H         -0.0015360105        3.5390900416       -2.4746101200
 H         -1.7172748642        3.8436312781       -0.7336667134
 H         -1.2596045380        3.1572148945        1.5970386259
 H          0.9527501162        2.1717415738        2.1706992275
 H          4.6560166319        0.9760435039       -1.0203625271
 H          4.7755206890       -1.0920643642       -2.2030120749
 H          3.8403307088       -3.3489815280       -2.5415161954
 H          1.8174649908       -4.0511144654       -1.3433226206
 C          0.3501941300       -2.5727849943        0.4772489943
 H          0.6658083336       -2.7556831116        1.5160354180
 C         -0.3379519916       -3.8171727685       -0.0496293847
 C          0.0745695659       -5.1764213805        0.4270999352
 C         -1.2317010236       -4.5913247328        0.8703605789
 H         -2.1464217299       -5.0068529267        0.4749198521
 H         -1.3172032555       -4.2378933361        1.8880925394
 H          0.0534448725       -5.9978248123       -0.2733060539
 H          0.8740799742       -5.2321454522        1.1505384514
 H         -0.6547727481       -3.7086317094       -1.0807903221
 O         -0.7283869709       -1.1985449164       -1.8003449560
