  62
        -98.94548467
 C         -1.8020370007       -1.2365726899        0.4142926889
 C         -1.6181987506       -0.0494893899       -0.3369640411
 C         -2.4520772808        1.0915489701        0.0657711686
 C         -3.3148399411        0.9646946800        1.0902718184
 C         -4.2190957614        2.0417199399        1.6259112981
 C         -5.5332296012        2.1970869297        0.8481167776
 C         -5.4016468608        2.8441890397       -0.5313000123
 H         -4.8504837710        3.7808103298       -0.4405527222
 H         -6.4112070308        3.0921385696       -0.8650441226
 C         -4.7372329204        1.9522394498       -1.5894076621
 H         -5.3154622601        1.9945370797       -2.5151096223
 H         -4.7515457604        0.9137747598       -1.2505436221
 C         -3.2997073603        2.3405294299       -1.9349743917
 H         -3.2887848703        3.3289588799       -2.3995652817
 H         -2.9167505100        1.6205244799       -2.6622450815
 C         -2.3454171707        2.3551513101       -0.7339414314
 H         -2.5457121310        3.2223819500       -0.1046903715
 H         -1.3213375406        2.4262536502       -1.1090737311
 H         -6.1982668914        2.8164444797        1.4545031774
 H         -5.9972971710        1.2132213497        0.7469241275
 H         -4.4591279617        1.7629499699        2.6544486380
 H         -3.6884079115        2.9944251600        1.6405007982
 O         -3.4524693412       -0.1913676200        1.7936389983
 C         -2.7089134910       -1.3169894699        1.4699518386
 O         -2.9361921911       -2.3081276699        2.1942964886
 H          0.2854574289       -0.7388778496        1.6866096595
 C          0.9781228291       -1.2661708795        1.0417641197
 C          0.4906871495       -2.2016323096        0.1395201496
 C          1.4005343398       -2.8671824195       -0.6741094301
 C          2.7556148098       -2.6001656894       -0.5827306897
 C          3.2338676494       -1.6538098193        0.3045655604
 C          2.3317525691       -0.9740453094        1.1127381601
 N          2.7988790087        0.0274606307        1.9806131103
 S          3.9185938688        1.1141173908        1.3679033106
 O          5.2469321088        0.5829802309        1.5555863810
 O          3.6457497384        2.3616733108        2.0489484405
 C          3.5809084293        1.2584810907       -0.3793874795
 C          2.2890024694        1.5126865506       -0.7938513999
 C          2.0225491998        1.5889465005       -2.1507250700
 C          3.0504887601        1.4256006206       -3.0662530897
 C          4.3462459600        1.1876831707       -2.6347395493
 C          4.6155573996        1.0961307308       -1.2788800792
 H          5.6037381895        0.8930112809       -0.8989282189
 H          5.1440553802        1.0626121208       -3.3490640990
 H          2.8366741004        1.4806897505       -4.1219967798
 H          1.0071516499        1.7437445104       -2.4779312303
 H          1.4981874692        1.6292378405       -0.0696798602
 H          2.0651265485        0.5106086906        2.4776504900
 H          4.2850422494       -1.4277770892        0.3847722608
 H          3.4489150400       -3.1304095493       -1.2170762395
 H          1.0459757901       -3.5971755796       -1.3829989002
 C         -0.9938982704       -2.4760074398        0.0817292392
 H         -1.2336837906       -3.2144519798        0.8616853491
 C         -1.4323836300       -3.0279953299       -1.2617022710
 C         -1.4681246697       -4.5057092199       -1.5071164909
 C         -2.7471709099       -3.7407150000       -1.3528993214
 H         -3.3641340496       -3.5794039601       -2.2241735915
 H         -3.3087256701       -3.8599414700       -0.4371628515
 H         -1.1711727899       -5.1568976098       -0.6986995908
 H         -1.2087142694       -4.8720752499       -2.4890453909
 H         -1.1575386098       -2.3779309098       -2.0843573509
 O         -0.7973645503        0.0605981202       -1.2816085908
