  62
        -98.93800708
 C          2.0499875306        1.2428652799        0.7987626589
 C          1.7460301404       -0.1347207300        0.9765008694
 C          2.8381781702       -1.0817556803        0.7383414394
 C          4.0645967002       -0.6161616706        0.4412639191
 C          5.2973752400       -1.4488119009        0.2141064991
 C          5.4432089297       -1.9736264314       -1.2206356507
 C          4.4638699494       -3.0822338113       -1.6079447302
 H          4.8109129692       -3.5010115716       -2.5546899902
 H          4.5063146294       -3.8791526411       -0.8649112200
 C          3.0137111695       -2.6088025811       -1.7784731601
 H          2.9957855297       -1.5211039211       -1.8796399504
 H          2.6017986592       -3.0206462413       -2.7026968699
 C          2.0724817096       -3.0141173906       -0.6437184998
 H          1.0927588496       -2.5753401904       -0.8503954198
 H          1.9659058494       -4.1013096705       -0.6288652795
 C          2.5157602999       -2.5447212702        0.7485080199
 H          3.3731170199       -3.1255227503        1.0877197400
 H          1.6873853600       -2.6963444599        1.4445259301
 H          5.3358979597       -1.1346866616       -1.9122996510
 H          6.4592749896       -2.3613555316       -1.3247649408
 H          5.3054580000       -2.2868819407        0.9116114694
 H          6.1522104702       -0.8051763310        0.4330376488
 O          4.3306596605        0.7102780993        0.3358339287
 C          3.3293707307        1.6750418795        0.4530136085
 O          3.7398582608        2.8306024594        0.2417539481
 O          0.6061234904       -0.5436758897        1.3201262197
 C          0.8584011208        2.1726695401        0.9666461988
 C         -0.1632843794        1.8356197900       -0.0918573509
 C          0.2225984403        1.6094568196       -1.4084130109
 C         -0.7123057699        1.2611329994       -2.3662481506
 C         -2.0497167299        1.1370005398       -2.0329446204
 C         -2.4461156996        1.3646111403       -0.7218629504
 C         -1.5041982894        1.7134412504        0.2374097094
 H         -1.8169387392        1.8672497307        1.2612744694
 N         -3.8078395696        1.2493468106       -0.3771136401
 S         -4.5540868999       -0.2366585993       -0.5833515095
 O         -4.5136069702       -0.5943765297       -1.9777752794
 O         -5.8658150598       -0.0823309889        0.0031027706
 C         -3.5908547899       -1.3847314092        0.3817400506
 C         -2.5019529601       -2.0081004696       -0.1924702694
 C         -1.7392887702       -2.8658574795        0.5829150608
 C         -2.0687733900       -3.0740208090        1.9124070009
 C         -3.1624814998       -2.4355735987        2.4759922709
 C         -3.9323736197       -1.5805636887        1.7051366908
 H         -4.7985541296       -1.0735006485        2.0996033708
 H         -3.4148036196       -2.5998533383        3.5114861410
 H         -1.4666461900       -3.7375388190        2.5129386610
 H         -0.8863526503       -3.3638295098        0.1515264008
 H         -2.2740204303       -1.8185750199       -1.2291362095
 H         -4.0123650493        1.5908019409        0.5518887498
 H         -2.7872089001        0.8474395497       -2.7636521502
 H         -0.3970452601        1.0820075791       -3.3834299106
 H          1.2692107703        1.6933822393       -1.6689258811
 H          0.4089276210        1.9109557405        1.9397536690
 C          1.1841803411        3.6551583801        1.0101922083
 C          1.0471343511        4.5550570498       -0.1770021819
 C          0.0850661513        4.6749866503        0.9650776382
 H          0.1557834216        5.5352295405        1.6131672979
 H         -0.9229799388        4.3237307304        0.8031158085
 H          1.7970551212        5.3186918896       -0.3144183323
 H          0.6852617208        4.1299698996       -1.1005744817
 H          2.0136547113        3.8678056401        1.6741984481
