  62
        -98.94060697
 C         -1.5654044302       -1.3705611127        0.7240313476
 C         -1.6134951779       -0.0021494745        1.0987465295
 C         -2.8944251896        0.6866002607        0.8995551127
 C         -3.9417861818       -0.0081334268        0.4203871106
 C         -5.2922434122        0.5734285349        0.1194777029
 C         -5.3773634580        1.0487224977       -1.3377839351
 C         -4.1995195685        1.9213828221       -1.7717951024
 H         -3.2885451742        1.3182350923       -1.7683485554
 H         -4.3821177952        2.2216038086       -2.8059161815
 C         -3.9835138314        3.1707783253       -0.9065640390
 H         -3.8055563618        4.0242920753       -1.5640848511
 H         -4.8874811130        3.3858526361       -0.3355045580
 C         -2.7892889909        3.0853001694        0.0460306221
 H         -1.8999712890        2.7733985825       -0.5071822211
 H         -2.6018877201        4.0875619998        0.4400667062
 C         -2.9580966118        2.1468709162        1.2473775544
 H         -3.8880591602        2.3792320231        1.7703403407
 H         -2.1227800755        2.3260458719        1.9302896711
 H         -5.4103178098        0.1703323219       -1.9865718877
 H         -6.3100137806        1.6010809098       -1.4671220204
 H         -6.0450939464       -0.1990750504        0.2852104320
 H         -5.4835296227        1.4039133495        0.7962517064
 O         -3.8699005075       -1.3246625840        0.1040886871
 C         -2.6775855051       -2.0356835297        0.2078616046
 O         -2.7679830576       -3.2148644803       -0.1790234623
 O         -0.6252150002        0.6103872477        1.5818600537
 C         -0.2164144570       -2.0498443985        0.8780294278
 C          0.6194697696       -1.7800525446       -0.3469177163
 C          0.1291745489       -2.0511978411       -1.6213979075
 C          0.8972038014       -1.7790549704       -2.7379476514
 C          2.1562769828       -1.2183380399       -2.6078486710
 C          2.6525845843       -0.9396046032       -1.3397885292
 C          1.8841151388       -1.2270112030       -0.2187662358
 H          2.2823453812       -1.0105645922        0.7605735477
 N          3.9266051698       -0.3833817064       -1.1803535338
 S          4.2847815289        0.6128480741        0.1093635933
 O          5.4634813770        1.3333398463       -0.3238567173
 O          4.4398285771       -0.1708255853        1.3096583633
 C          2.9204411682        1.7489404029        0.2775902948
 C          2.4695280676        2.4154661263       -0.8444873632
 C          1.4396140158        3.3310505168       -0.7083704447
 C          0.8881070732        3.5709958502        0.5406907063
 C          1.3529913073        2.8956772422        1.6565211918
 C          2.3778366653        1.9734666698        1.5251546215
 H          2.7582658985        1.4184511119        2.3677621387
 H          0.9155249096        3.0728200780        2.6252758148
 H          0.0867447904        4.2853236288        0.6446210760
 H          1.0691358374        3.8548020082       -1.5754102909
 H          2.9231423536        2.2180070251       -1.8023398015
 H          4.3885309716       -0.0986199893       -2.0307021013
 H          2.7524317200       -1.0007509036       -3.4807267003
 H          0.5095384439       -1.9983921143       -3.7213800733
 H         -0.8573208846       -2.4797170234       -1.7219426811
 H          0.2683558036       -1.5310592261        1.7211353102
 C         -0.2938603254       -3.5243499603        1.2416025722
 C          0.1312840683       -4.6273139935        0.3239955946
 C          0.9704617905       -4.2843749255        1.5159087937
 H          0.9940030932       -4.9686019432        2.3505784560
 H          1.9048494108       -3.7711788000        1.3399033184
 H         -0.4475597630       -5.5380654650        0.3387917032
 H          0.5054352158       -4.3667980770       -0.6533925325
 H         -1.1392248640       -3.7400031712        1.8864284218
