  62
        -98.93779870
 C         -1.3930919495       -1.7692613827        0.1596960186
 C         -1.7171919743       -0.9352576786       -0.9369208332
 C         -2.7694129840        0.0671595509       -0.6997347321
 C         -3.3349268662        0.1748424124        0.5154229864
 C         -4.4475720494        1.1053463111        0.9213212944
 C         -4.1512695942        2.6158885821        0.8522788204
 C         -4.5688103068        3.2836297275       -0.4639200647
 H         -5.0060140023        4.2587546066       -0.2402558860
 H         -5.3559201180        2.6873987593       -0.9273109107
 C         -3.4442277989        3.5211270306       -1.4765596448
 H         -2.8634053983        4.3938079126       -1.1689269295
 H         -3.9036443154        3.7560867378       -2.4391973375
 C         -2.4627431634        2.3641616557       -1.6638183675
 H         -1.7861251745        2.3213523547       -0.8082159277
 H         -1.8408859354        2.5832941295       -2.5348350333
 C         -3.1236539041        0.9826981601       -1.8363686302
 H         -2.7546243762        0.5069215523       -2.7473562463
 H         -4.2050581606        1.0835429935       -1.9184364665
 H         -3.0948624921        2.7956254337        1.0498253469
 H         -4.7138675751        3.0827740929        1.6621836568
 H         -5.3259734779        0.8829922216        0.3107491252
 H         -4.6849691940        0.8364920935        1.9527768878
 O         -2.9704389028       -0.6234703269        1.5554876765
 C         -2.0108847041       -1.6079226576        1.4055869730
 O         -1.7976094949       -2.2713312926        2.4380361878
 H          0.9357934699       -1.2620246457       -1.6426188673
 C          1.5280584662       -1.4447383076       -0.7584269872
 C          1.0298216415       -2.2773059143        0.2331318245
 C          1.7938986603       -2.4792465259        1.3765133249
 C          3.0236832877       -1.8600337165        1.5221156090
 C          3.5041661242       -1.0080199555        0.5434685914
 C          2.7414397069       -0.7949851109       -0.5971448729
 N          3.1737961647        0.1481427479       -1.5535046392
 S          3.4304678011        1.6826346422       -0.9242565161
 O          3.0547585300        2.6093234666       -1.9689092031
 O          4.7935504560        1.7824320326       -0.4643692655
 C          2.3277784928        1.8122341043        0.4776949597
 C          2.8507257699        2.0913326132        1.7238530363
 C          2.0001352064        2.1363985562        2.8167177787
 C          0.6474965029        1.8863681351        2.6481525858
 C          0.1376199628        1.6078965782        1.3898064867
 C          0.9797403712        1.5759338090        0.2906069463
 H          0.5982848302        1.3610001047       -0.6957490085
 H         -0.9130462706        1.3946091216        1.2628931724
 H         -0.0166365609        1.9007012417        3.4980318473
 H          2.3938721143        2.3544853119        3.7962101860
 H          3.9117219850        2.2592144149        1.8123580396
 H          2.5549105436        0.2022756966       -2.3510953511
 H          4.4434530704       -0.4895424816        0.6514446921
 H          3.6065388959       -2.0287553907        2.4144381169
 H          1.4061152427       -3.1086930990        2.1639750082
 C         -0.3487648270       -2.8767775556        0.0969164228
 H         -0.5306165935       -3.5047518487        0.9786666424
 C         -0.4687037019       -3.7430833144       -1.1409454765
 C          0.1519614994       -5.1063608063       -1.1313545814
 C         -1.3393759396       -4.9611404282       -1.1001471700
 H         -1.9037285015       -5.2204266212       -1.9833622361
 H         -1.8540097790       -5.1779090366       -0.1751981193
 H          0.6486441276       -5.4230758947       -0.2266997272
 H          0.6151264976       -5.4679909504       -2.0365188393
 H         -0.4439066026       -3.1852035767       -2.0673210398
 O         -1.1804372388       -1.0039199800       -2.0760420505
