  62
        -98.93777678
 C          2.5680409460        0.0576175094       -0.1423431752
 C          2.4265430463        1.1907451761       -0.9783011549
 C          1.8630335946        2.4061804749       -0.3673936800
 C          1.5100522713        2.3761075091        0.9291392996
 C          0.8303746738        3.4578277912        1.7223081666
 C         -0.6956843950        3.2621528354        1.6835445461
 C         -1.4001677659        3.9544384504        0.5181232019
 H         -2.4505167729        3.6553312043        0.5512543273
 H         -1.3576936788        5.0369055942        0.6615711889
 C         -0.8436781046        3.6200513204       -0.8682721996
 H         -0.6560680909        2.5455096679       -0.9379339974
 H         -1.6169866208        3.8512534628       -1.6042640301
 C          0.4251550093        4.4131263441       -1.2168375904
 H          0.5428982045        5.2267651577       -0.5009770810
 H          0.3005544680        4.8774161852       -2.1974850641
 C          1.7205706349        3.5920899225       -1.2824610017
 H          1.8345165265        3.1771364113       -2.2891127695
 H          2.5737904916        4.2603192752       -1.1210384438
 H         -1.1230264849        3.6426700864        2.6139407366
 H         -0.8963214880        2.1878123705        1.6412078995
 H          1.1132986344        4.4422494496        1.3606989252
 H          1.1708273480        3.3482307874        2.7540765189
 O          1.6855348069        1.2751335470        1.7074505533
 C          2.1570786972        0.0812295150        1.1924149462
 O          2.1804879641       -0.8498428467        2.0194541258
 O          2.7405910053        1.1801387649       -2.2015334837
 C          2.9761748299       -1.2544835373       -0.7939042932
 C          1.9190104849       -2.2788045771       -0.4621024061
 C          2.1677795479       -3.5221929146        0.1007645077
 C          1.1138013616       -4.3531607435        0.4437666990
 C         -0.1973980414       -3.9552353173        0.2608200438
 C         -0.4549552966       -2.7155882838       -0.3153103829
 C          0.6006548993       -1.9112189325       -0.7027512626
 H          0.3915134114       -0.9505828284       -1.1523695460
 N         -1.7699940083       -2.2564166800       -0.5191137869
 S         -2.0315703498       -0.5936582910       -0.3360828142
 O         -1.7090971843        0.0595615838       -1.5805852647
 O         -1.3637125062       -0.0997158171        0.8455688684
 C         -3.7990040833       -0.5748475393       -0.1009543679
 C         -4.6130381125       -0.7589289425       -1.2028752348
 C         -5.9870192726       -0.7795854909       -1.0242101670
 C         -6.5212702026       -0.6163200851        0.2455907709
 C         -5.6919397755       -0.4294783604        1.3411004221
 C         -4.3163754721       -0.4101223418        1.1695157572
 H         -3.6312388011       -0.2627313691        1.9892819399
 H         -6.1091726537       -0.2991668656        2.3265588141
 H         -7.5909962373       -0.6319041898        0.3820043506
 H         -6.6350203021       -0.9217772794       -1.8738764174
 H         -4.1513348602       -0.8712420731       -2.1698925840
 H         -2.4532679486       -2.7941689204       -0.0026861703
 H         -1.0149801621       -4.5902847823        0.5667325132
 H          1.3181397766       -5.3154064881        0.8885498969
 H          3.1814190507       -3.8282823660        0.3015317397
 H          2.9165904619       -1.0452289192       -1.8762021995
 C          4.3986898285       -1.7151505760       -0.5238245233
 C          5.4646864649       -0.7346345887       -0.1378775725
 C          4.9911260850       -1.7543772371        0.8517232898
 H          5.6536066707       -2.5716715499        1.0973345205
 H          4.3692852379       -1.4304795951        1.6706360524
 H          6.4481680892       -0.8479332188       -0.5688054958
 H          5.1647446174        0.2934217184        0.0070232122
 H          4.7010586901       -2.5060168680       -1.2038997814
