  62
        -98.94213890
 C         -2.7861266488       -0.2286644271        0.4386416899
 C         -2.3781014336        0.3120702046       -0.8056694122
 C         -2.3298989429        1.7783957916       -0.8741425289
 C         -2.7276561729        2.5121305657        0.1817845248
 C         -2.7929288417        4.0144299426        0.2448761931
 C         -1.4679778423        4.6861231746        0.6294339188
 C         -0.3909175006        4.6595075270       -0.4554317749
 H         -0.8029925626        5.0521734714       -1.3853751314
 H          0.4035379228        5.3377015583       -0.1381234196
 C          0.2148206541        3.2719168074       -0.7080253577
 H          1.3030787329        3.3471487639       -0.7657374883
 H         -0.0134406147        2.6126076868        0.1331584680
 C         -0.2466228911        2.5958633861       -1.9990235978
 H          0.0942974947        3.1795091063       -2.8574940773
 H          0.2344585894        1.6147839499       -2.0521015178
 C         -1.7658813384        2.4065244332       -2.1119577973
 H         -1.9655401644        1.7322634935       -2.9483712354
 H         -2.2488414926        3.3639009889       -2.3101087810
 H         -1.6881405804        5.7290408115        0.8680679026
 H         -1.0852664454        4.2106597181        1.5354238071
 H         -3.5363929074        4.2595072093        1.0064493956
 H         -3.1346851875        4.4045660028       -0.7140250110
 O         -3.1556267585        1.9511358651        1.3448180493
 C         -3.1551990531        0.5753121442        1.5157135027
 O         -3.5005712996        0.1980920370        2.6543772924
 O         -2.0739499014       -0.3904161514       -1.8047846169
 C         -2.8160006165       -1.7329747082        0.6336764237
 C         -1.4805493074       -2.3386932432        0.2725940863
 C         -1.3568376914       -3.5519663743       -0.3922051163
 C         -0.1071946094       -4.0526221464       -0.7150503023
 C          1.0437821352       -3.3618125383       -0.3839001767
 C          0.9314498278       -2.1520150365        0.2881767723
 C         -0.3201542688       -1.6603213338        0.6225197349
 H         -0.4003200695       -0.7138683803        1.1455461731
 N          2.1015621226       -1.4322655741        0.6342844221
 S          2.9775871298       -0.8212904714       -0.6810345624
 O          2.2207203054        0.2104049580       -1.3548949840
 O          3.4160730696       -1.9271993374       -1.4922415276
 C          4.3681717239       -0.1010693302        0.1690764917
 C          4.3604036327        1.2506051871        0.4535655397
 C          5.4313652427        1.7973346096        1.1429603322
 C          6.4838807814        0.9851930970        1.5372611371
 C          6.4765499014       -0.3707739218        1.2454120386
 C          5.4091205319       -0.9228325477        0.5555172688
 H          5.3631291020       -1.9681884281        0.2995364424
 H          7.2977643741       -0.9979156315        1.5526395211
 H          7.3161029820        1.4130329332        2.0735707828
 H          5.4401166253        2.8514808582        1.3691849295
 H          3.5239513558        1.8442073196        0.1195453754
 H          1.8714385265       -0.6451045849        1.2289326547
 H          2.0194291444       -3.7279439201       -0.6571010417
 H         -0.0288101527       -4.9933639537       -1.2388299431
 H         -2.2414921696       -4.1016921722       -0.6697190518
 H         -2.9930286888       -1.9006317231        1.7067378570
 C         -3.9698592593       -2.3296648743       -0.1475805324
 C         -4.6956457951       -3.5352980981        0.3674635367
 C         -5.3573650843       -2.1914635984        0.4005911015
 H         -6.1662588423       -1.9944639201       -0.2867831751
 H         -5.4631086769       -1.6932749731        1.3535285779
 H         -5.0553687831       -4.2634899792       -0.3438897235
 H         -4.3635192273       -3.9574642456        1.3038460628
 H         -3.8412479277       -2.2242224300       -1.2191165513
