  62
        -98.94414212
 C          2.1983321672       -0.7754670069        0.0271727932
 C          2.9022109454       -0.0829222661       -0.9857727290
 C          3.6946979752        1.0721669110       -0.5436110656
 C          3.6751862356        1.4237444896        0.7554020129
 C          4.4743229477        2.5455735628        1.3513353925
 C          5.8384489158        2.0498955832        1.8515099448
 C          6.6021659338        1.2071231097        0.8300499478
 H          7.5604712932        0.9398637097        1.2804778180
 H          6.0575054829        0.2760593012        0.6573548966
 C          6.8471010598        1.9066016132       -0.5142926778
 H          7.8828246732        1.7351252467       -0.8148584204
 H          6.7170006094        2.9834905701       -0.4012243523
 C          5.9638187953        1.4076440291       -1.6594145133
 H          6.3638580976        1.8051911920       -2.5960222809
 H          6.0194549948        0.3175969658       -1.7169183980
 C          4.4855815962        1.8109101264       -1.5864842503
 H          4.4051944359        2.8901657117       -1.4404127140
 H          4.0244279665        1.5595498178       -2.5464491557
 H          5.6791320749        1.4426228487        2.7454227882
 H          6.4386623996        2.9172505120        2.1320821916
 H          4.6107788842        3.3251999578        0.6043296167
 H          3.9153014059        2.9557411918        2.1940474152
 O          2.9508527982        0.7606746092        1.6923134801
 C          2.2026918115       -0.3595420438        1.3589554987
 O          1.5978919738       -0.8769649789        2.3155465227
 H         -0.0621019068        0.1796563385       -0.8569060622
 C         -0.6655463901       -0.5757765990       -0.3672711580
 C         -0.0767103583       -1.7838335015       -0.0131621739
 C         -0.8673745428       -2.7489037009        0.5962600946
 C         -2.2024507910       -2.4963112839        0.8614419115
 C         -2.7777294508       -1.2852745832        0.5253368590
 C         -2.0005768642       -0.3175890560       -0.0983749653
 N         -2.5740078499        0.9210192099       -0.4376264309
 S         -3.9995111749        0.9154827572       -1.3262840109
 O         -4.0983525211       -0.2612161248       -2.1585258475
 O         -4.0233927199        2.1904132891       -2.0097474708
 C         -5.2774626318        0.8971191119       -0.0870218950
 C         -6.2286868390       -0.1042224246       -0.0925449607
 C         -7.2176443592       -0.0939157948        0.8788784970
 C         -7.2381653106        0.9125807260        1.8321805478
 C         -6.2772854312        1.9128525000        1.8217551389
 C         -5.2863401911        1.9087253755        0.8532100460
 H         -4.5235300921        2.6681576054        0.8083954575
 H         -6.2964843976        2.6940603669        2.5645278762
 H         -8.0075437407        0.9180741238        2.5880288201
 H         -7.9658629346       -0.8700941044        0.8884548583
 H         -6.1694704654       -0.8687714144       -0.8506823702
 H         -1.9153486884        1.5772937527       -0.8313809468
 H         -3.8145915478       -1.0828068339        0.7378849163
 H         -2.8026929422       -3.2535959002        1.3420694216
 H         -0.4378795251       -3.6989243070        0.8681715788
 C          1.3796245872       -1.9963978911       -0.3481533398
 H          1.4644244944       -2.0798616012       -1.4426710275
 C          1.9718450314       -3.2403527297        0.2809900061
 C          1.8423199503       -4.5689644151       -0.4001769667
 C          3.1687813775       -3.8733466402       -0.3608951787
 H          3.9447827084       -4.2728669171        0.2746525864
 H          3.5389852694       -3.4231991172       -1.2707389086
 H          1.3143991843       -4.5989633032       -1.3414381476
 H          1.7101062299       -5.4503682330        0.2089577735
 H          1.9413264670       -3.2119135118        1.3644078527
 O          2.8642020828       -0.4115656909       -2.2035472857
