  62
        -98.93847077
 C          1.6088661426        1.5181044714        0.5530155600
 C          2.5383115636        1.0847916584       -0.4222572819
 C          3.3325653222       -0.1103561849       -0.0796961791
 C          3.0767715438       -0.7830965880        1.0564591157
 C          3.7345963338       -2.0133340716        1.6433824994
 C          4.5091940428       -2.9827582350        0.7521709345
 C          3.6841918619       -3.6659560130       -0.3363087579
 H          4.3565274916       -4.3067166781       -0.9114892455
 H          2.9400746490       -4.3094553979        0.1399462851
 C          2.9528048033       -2.7301858699       -1.2971533851
 H          2.4859362755       -3.3447418162       -2.0715271260
 H          2.1500592755       -2.2097990322       -0.7713393412
 C          3.8293878041       -1.6919767241       -1.9960649106
 H          3.2270163663       -1.2392541163       -2.7875690478
 H          4.6843658191       -2.1828361250       -2.4646317894
 C          4.3429907044       -0.5487747347       -1.0996460414
 H          4.5369047834        0.3178640695       -1.7376070066
 H          5.2790475045       -0.8123544128       -0.6121583727
 H          4.8969643274       -3.7638587528        1.4121196655
 H          5.3697332468       -2.4882266195        0.3112296290
 H          4.4109680150       -1.6535065315        2.4269725539
 H          2.9355160215       -2.5600555765        2.1535425929
 O          2.1198724931       -0.3654090767        1.9362383842
 C          1.3797106969        0.7798302854        1.7164038037
 O          0.5512357863        1.0311338778        2.6154892519
 O          2.7249473659        1.6514268254       -1.5293876068
 C          0.6975695747        2.7233143469        0.3609202132
 C         -0.5191909484        2.2129083319       -0.3715619791
 C         -0.5138829471        1.9595076315       -1.7390685439
 C         -1.6115201850        1.3745873000       -2.3451338599
 C         -2.7266694009        1.0191395539       -1.6051999366
 C         -2.7373588016        1.2668311499       -0.2392959616
 C         -1.6445944519        1.8707937519        0.3647992864
 H         -1.6476967345        2.0394852651        1.4332794924
 N         -3.8486640284        0.8757709064        0.5326874303
 S         -4.3575091691       -0.7068422377        0.3437673889
 O         -5.2146319360       -0.7987843083       -0.8120699508
 O         -4.9668473855       -1.0687874195        1.6045580855
 C         -2.8823961280       -1.6759144001        0.0670634004
 C         -2.8304038139       -2.5272415352       -1.0180993133
 C         -1.6966194489       -3.2990892178       -1.2136232053
 C         -0.6350072840       -3.2029882046       -0.3276743482
 C         -0.6975130486       -2.3351114978        0.7514013603
 C         -1.8316717431       -1.5663914371        0.9565377499
 H         -1.8914968410       -0.8893789911        1.7944069919
 H          0.1314034457       -2.2416615138        1.4362372928
 H          0.2465815862       -3.8056882976       -0.4784552584
 H         -1.6424897039       -3.9716399924       -2.0543601628
 H         -3.6767208416       -2.5662811150       -1.6844847289
 H         -3.7503133949        1.0973384482        1.5133686290
 H         -3.5818864426        0.5457950811       -2.0601632571
 H         -1.5953288292        1.1803209259       -3.4067060121
 H          0.3681881392        2.1919434045       -2.3146804229
 H          0.3787404109        3.0226997749        1.3685982847
 C          1.3511441073        3.9139470903       -0.3039272596
 C          0.6762278468        5.2480801687       -0.2052548598
 C          1.9444286240        4.9917147825        0.5507480573
 H          2.8518523230        5.4718235951        0.2167524321
 H          1.8839109706        4.8740041824        1.6232393730
 H          0.7100081009        5.9066736887       -1.0593451737
 H         -0.2456543397        5.3022869285        0.3545098980
 H          1.8670119751        3.6763480087       -1.2234746801
