  62
        -98.94457126
 C          1.9909075141        1.2522923382       -0.6339759675
 C          1.5314708813        0.0886089614       -1.2970424762
 C          2.2958863689       -1.1433885530       -1.0432393027
 C          3.3450470475       -1.1146443526       -0.2041266415
 C          4.1886640987       -2.3000537724        0.1645191886
 C          3.6612438613       -3.0034313112        1.4219060355
 C          2.1646221428       -3.3140223763        1.3818928358
 H          1.9222203073       -3.8602324712        2.2968474122
 H          1.5949300971       -2.3817386374        1.4129663054
 C          1.7152637057       -4.1338831033        0.1644680826
 H          2.5740150731       -4.6308015081       -0.2897459925
 H          1.0297397790       -4.9129287193        0.5050342137
 C          0.9714534444       -3.3180687880       -0.8944928395
 H          0.2033313816       -2.7176997744       -0.4004391470
 H          0.4666640116       -4.0128246003       -1.5715685829
 C          1.8432595308       -2.3899212458       -1.7507449731
 H          2.7001288226       -2.9447718164       -2.1395518336
 H          1.2394931669       -2.0519205625       -2.5981354010
 H          4.2220739357       -3.9307758908        1.5567085737
 H          3.8530811534       -2.3617227904        2.2851981509
 H          4.2083485589       -2.9969514956       -0.6713876200
 H          5.2043476292       -1.9489031365        0.3567679326
 O          3.7479614783        0.0159427147        0.4317973289
 C          3.0754178892        1.2109158480        0.2459055827
 O          3.5431366496        2.1662925391        0.9000496330
 H         -0.6375449495        0.8795478357       -0.1164596393
 C         -0.6512567945        1.7422445576        0.5258872181
 C          0.2767103441        2.7548495980        0.3254417066
 C          0.2458237681        3.8663827996        1.1578011651
 C         -0.6836700582        3.9477047805        2.1803379723
 C         -1.5771588391        2.9164556411        2.4038614068
 C         -1.5559189848        1.7989833286        1.5738840727
 N         -2.4502956272        0.7421391792        1.7794337544
 S         -2.0756261949       -0.8632720938        1.4530356186
 O         -2.7109545924       -1.6012119104        2.5269150414
 O         -0.6564827679       -1.0638841355        1.2995533929
 C         -2.9741695791       -1.1895276748       -0.0509376333
 C         -4.3141863250       -1.5046385948        0.0832577171
 C         -5.0699285849       -1.7436324725       -1.0516291064
 C         -4.4765109745       -1.6635409553       -2.3028441713
 C         -3.1329848491       -1.3472498633       -2.4211203126
 C         -2.3694950825       -1.1054007079       -1.2881159451
 H         -1.3235810705       -0.8536943882       -1.3765407260
 H         -2.6636406710       -1.2813250405       -3.3896540351
 H         -5.0626056395       -1.8493432311       -3.1891640687
 H         -6.1150816951       -1.9913629217       -0.9585031612
 H         -4.7299070867       -1.5706336144        1.0751096045
 H         -3.0095375459        0.8201873111        2.6156675033
 H         -2.2832162535        2.9684730488        3.2188947061
 H         -0.6995666017        4.8147196016        2.8234272593
 H          0.9689129059        4.6562056996        1.0156081782
 C          1.3167798178        2.6114084639       -0.7567283778
 H          2.1097301866        3.3483887015       -0.5494108856
 C          0.7807630134        2.9039763101       -2.1505256303
 C         -0.6766551770        2.9304676896       -2.4881542127
 C          0.0965196203        4.2111672328       -2.4234513534
 H          0.3214206328        4.7310294704       -3.3423351174
 H         -0.0844011983        4.8605402895       -1.5799977720
 H         -1.3870817221        2.7222480475       -1.7035350659
 H         -0.9705652433        2.5466514786       -3.4528255981
 H          1.4455988825        2.5321439118       -2.9232210818
 O          0.5446683902        0.0570964489       -2.0766035026
