  62
        -98.94480159
 C         -1.5996718800       -1.2935029899       -0.2417680904
 C         -1.4096094299        0.0825223302       -0.5144577599
 C         -2.2619242597        1.0107934200        0.2397668706
 C         -3.1154992195        0.5433906897        1.1665805407
 C         -4.0222265492        1.3692129695        2.0383829412
 C         -5.3433221393        1.7696863299        1.3667700916
 C         -5.2257670394        2.8408752203        0.2815990320
 H         -6.2388692995        3.1802069905        0.0568164624
 H         -4.6758278793        3.6958149301        0.6762076522
 C         -4.5671437398        2.3570264307       -1.0177933683
 H         -5.1537413500        2.7002474510       -1.8728573981
 H         -4.5718456599        1.2649508307       -1.0428347187
 C         -3.1345850898        2.8494655006       -1.2229528985
 H         -2.7526271801        2.4153817009       -2.1501318088
 H         -3.1322784797        3.9362302506       -1.3317349581
 C         -2.1723275796        2.4705065201       -0.0898133889
 H         -1.1503716596        2.6770392301       -0.4169163391
 H         -2.3756936093        3.0710419698        0.7967363014
 H         -6.0039695591        2.1477229597        2.1504892019
 H         -5.8055137495        0.8736057901        0.9461992014
 H         -4.2516812890        0.7571823892        2.9135822810
 H         -3.4934288090        2.2630161494        2.3716483214
 O         -3.2406920596       -0.7837171003        1.4352361902
 C         -2.5025446798       -1.7224736402        0.7359308597
 O         -2.7400815899       -2.9028709403        1.0668178294
 H          1.1415719000       -0.6345224102       -0.3254734708
 C          1.3659939300       -1.6185735703        0.0481474388
 C          0.4758250999       -2.6589244202       -0.1800304713
 C          0.7847692798       -3.9244700404        0.3029116681
 C          1.9521894400       -4.1380136207        1.0140375578
 C          2.8134346902       -3.0896253609        1.2788908279
 C          2.5131361202       -1.8176393307        0.8006422185
 N          3.3713549804       -0.7417532409        1.0654336886
 S          2.8081622706        0.7997045290        1.4324740793
 O          3.6665041109        1.2486361085        2.5121637993
 O          1.3917526907        0.8023190291        1.7038461897
 C          3.2154074104        1.7441307995       -0.0222132405
 C          2.2722926501        1.9873113399       -0.9990291401
 C          2.6442791300        2.7157838803       -2.1195596700
 C          3.9421145500        3.1845110302       -2.2456167501
 C          4.8788519902        2.9311870197       -1.2545171504
 C          4.5143811104        2.2050033294       -0.1334142206
 H          5.2050089306        1.9982687490        0.6672899291
 H          5.8881812202        3.2972660697       -1.3523171206
 H          4.2234086198        3.7509384205       -3.1194757700
 H          1.9111091098        2.9074232706       -2.8869105497
 H          1.2670737301        1.6098740500       -0.8883846000
 H          4.1563296905       -0.9768565012        1.6554738783
 H          3.7106368803       -3.2490990312        1.8580352377
 H          2.1837537300       -5.1254894509        1.3838031574
 H          0.0939323197       -4.7379385002        0.1364216980
 C         -0.8173710303       -2.4085456198       -0.9202694509
 H         -1.4366990804       -3.3107008397       -0.8176111911
 C         -0.5587728306       -2.1734070493       -2.3952134609
 C         -0.3263158210       -3.3538831390       -3.2877010614
 C         -1.6005713009       -2.5720616388       -3.3947442308
 H         -1.7529154111       -1.9422004385       -4.2580967005
 H         -2.5081966909       -3.0215138988       -3.0177915007
 H          0.4005124588       -3.2635307688       -4.0800360315
 H         -0.3719231810       -4.3362905491       -2.8425152717
 H          0.0026588594       -1.2709627693       -2.5951490307
 O         -0.5812015201        0.5427108504       -1.3442261600
