  62
        -98.94035948
 C         -2.1823940382       -0.7064867968        0.1776071499
 C         -3.0162771915       -0.0616684660        1.1259989700
 C         -3.8431008723        1.0423142188        0.6212215223
 C         -3.7181622366        1.4199168367       -0.6639329133
 C         -4.5380441303        2.4866643905       -1.3284439804
 C         -5.8018470949        1.8947028003       -1.9683514475
 C         -6.5957059856        0.9784509688       -1.0370080638
 H         -7.4793468450        0.6444633225       -1.5849949523
 H         -5.9998339558        0.0893438789       -0.8179116327
 C         -7.0295099946        1.6344501337        0.2813822657
 H         -8.0739774650        1.3794337676        0.4724533212
 H         -6.9724939401        2.7198374203        0.1914849681
 C         -6.2309081174        1.1856481713        1.5067148662
 H         -6.2093836592        0.0935892234        1.5506228743
 H         -6.7525456214        1.5376870827        2.4007059303
 C         -4.7879773473        1.6999182098        1.5871600152
 H         -4.7762695279        2.7845237826        1.4606785125
 H         -4.4064028803        1.4664443079        2.5857096527
 H         -6.4377319482        2.7171271476       -2.3007868374
 H         -5.5064957489        1.3165225770       -2.8469345940
 H         -4.8096062103        3.2410840584       -0.5924923558
 H         -3.9310929597        2.9523389935       -2.1066439889
 O         -2.8483217947        0.8333272539       -1.5231334063
 C         -2.0632134242       -0.2466544379       -1.1352217616
 O         -1.3212170444       -0.6764953440       -2.0359606964
 H          0.2312250956        0.1738280274        1.2246831680
 C          0.7613761322       -0.5600870678        0.6284656055
 C          0.0916400827       -1.7093408000        0.2244191641
 C          0.7822361606       -2.6432470034       -0.5352710621
 C          2.1021125791       -2.4200880600       -0.8878731716
 C          2.7591649233       -1.2691929915       -0.4955359045
 C          2.0798299589       -0.3294000446        0.2691979638
 N          2.7334943450        0.8526286638        0.6593803526
 S          4.2437798413        0.7309969186        1.3815575486
 O          4.3916090061       -0.5189862196        2.0906090621
 O          4.3827231854        1.9365473922        2.1695634001
 C          5.3836808866        0.7987236745        0.0158792800
 C          5.3191910568        1.8871563950       -0.8317490052
 C          6.2061094977        1.9613971986       -1.8937606852
 C          7.1391112363        0.9534374281       -2.0871803890
 C          7.1934841187       -0.1309299406       -1.2250077189
 C          6.3085562354       -0.2115948677       -0.1609634364
 H          6.3105455516       -1.0375141901        0.5323892833
 H          7.9200099820       -0.9129285529       -1.3767924885
 H          7.8279219274        1.0140301091       -2.9149332373
 H          6.1666396277        2.8032256523       -2.5661977620
 H          4.5821194931        2.6503150547       -0.6447763486
 H          2.1443443029        1.4944344061        1.1695243309
 H          3.7842979970       -1.0899477278       -0.7755196349
 H          2.6247723916       -3.1517886972       -1.4849072806
 H          0.2824363820       -3.5370911639       -0.8698718642
 C         -1.3428797673       -1.8753640706        0.6602502786
 H         -1.3673651612       -1.7893647543        1.7603673725
 C         -1.9246405910       -3.2408158885        0.3253978599
 C         -3.3983821712       -3.4229478135        0.1217460802
 C         -2.4581066402       -3.5764976745       -1.0338944644
 H         -2.2834087505       -4.5698261211       -1.4208261196
 H         -2.4312631573       -2.8037085409       -1.7856385288
 H         -4.0215416290       -2.5410387269        0.1604466880
 H         -3.8677122494       -4.3060876905        0.5286583758
 H         -1.4144114113       -4.0376054786        0.8581529725
 O         -3.0625523087       -0.3922599966        2.3420146263
