  62
        -98.94226831
 C         -1.2032326223       -0.9164219583        0.4292332242
 C         -2.0818774276       -0.7126691592       -0.6586531689
 C         -3.0829247527        0.3588685713       -0.5028299773
 C         -3.0860101100        1.1058123204        0.6168809622
 C         -3.9405678097        2.2885465430        1.0236317658
 C         -5.2311452765        2.6155735305        0.2767387096
 C         -6.3438852629        1.5802226826        0.4365291768
 H         -6.7004854696        1.6105270062        1.4691471098
 H         -7.1740872356        1.8704857982       -0.2110105659
 C         -5.9517031968        0.1379025088        0.1260740618
 H         -5.1939078495       -0.1970586882        0.8371783748
 H         -6.8351635512       -0.4880858349        0.2776126935
 C         -5.4440140712       -0.1106546972       -1.2929500903
 H         -6.1740200811        0.2599896951       -2.0150485277
 H         -5.3598629183       -1.1923169625       -1.4269445820
 C         -4.0719446415        0.5029687669       -1.6234869823
 H         -4.1638239601        1.5446869830       -1.9224377837
 H         -3.6513243055       -0.0440448525       -2.4725639092
 H         -5.0226031344        2.7927346485       -0.7743120421
 H         -5.5968429081        3.5599043157        0.6893886540
 H         -4.1689338247        2.1399519654        2.0840371758
 H         -3.2782853623        3.1605366137        0.9709351976
 O         -2.1823163296        0.9026879779        1.6207161937
 C         -1.2248874358       -0.0923294534        1.5519773510
 O         -0.4618211189       -0.1429556815        2.5392166385
 O         -2.0341310679       -1.3869190772       -1.7208557584
 C         -0.1336056127       -1.9896397681        0.3573011390
 C          0.8468293437       -1.6741230714       -0.7475490295
 C          1.3996982187       -2.6347298767       -1.5849248747
 C          2.3190741533       -2.2698858351       -2.5537468014
 C          2.7291689204       -0.9557917255       -2.6900404071
 C          2.1861591051        0.0111551808       -1.8518500086
 C          1.2478165562       -0.3544572371       -0.9012208300
 H          0.8110236206        0.4108082485       -0.2783116508
 N          2.5751378821        1.3573714243       -1.9340576339
 S          2.7189411989        2.2401869493       -0.5191688179
 O          1.4185705307        2.6245975798       -0.0290203508
 O          3.6034911727        3.3313886507       -0.8709361168
 C          3.5465364515        1.1390014017        0.6153466433
 C          2.8787946018        0.5739136173        1.6820708064
 C          3.5584211307       -0.3198442335        2.4962321678
 C          4.8826465156       -0.6316806569        2.2337874316
 C          5.5426079780       -0.0479700777        1.1625827937
 C          4.8693722868        0.8428390723        0.3441691061
 H          5.3497299717        1.3266401283       -0.4907803070
 H          6.5744835058       -0.2872010311        0.9624913201
 H          5.4024172111       -1.3307424713        2.8697591965
 H          3.0365543180       -0.7676398203        3.3272091564
 H          1.8452304402        0.8215867451        1.8701798616
 H          3.3314353842        1.5454058052       -2.5755968676
 H          3.4529055368       -0.6767393633       -3.4400958343
 H          2.7321210177       -3.0236542825       -3.2065408364
 H          1.1054123599       -3.6664988425       -1.4846908034
 H          0.4160496987       -1.9299415010        1.3092699110
 C         -0.7571167531       -3.3646863439        0.2411458390
 C         -0.0702933396       -4.5571318439        0.8342128840
 C         -1.3098777370       -4.0111701968        1.4747267714
 H         -2.2270481935       -4.5751423503        1.3952843288
 H         -1.2115705974       -3.4687478213        2.4042413673
 H         -0.1384088804       -5.5017937664        0.3161324976
 H          0.8710965478       -4.3941181454        1.3366945028
 H         -1.3094088355       -3.4943217482       -0.6820294099
