  62
        -98.94197908
 C         -0.7188416723       -1.3015486782        0.5413536153
 C         -1.1649087100       -0.8579988157       -0.7247742053
 C         -2.1481650259        0.2397857726       -0.7205559850
 C         -2.5436135087        0.7586202831        0.4547079000
 C         -3.6191972508        1.7847699126        0.6809860941
 C         -4.9705611662        1.0966123000        0.9434218350
 C         -5.7874759992        0.7847279162       -0.3098214085
 H         -6.6538645865        0.1984836646        0.0051959990
 H         -6.1619277614        1.7182278337       -0.7350995179
 C         -5.0441888622        0.0125336599       -1.4030454150
 H         -4.4544276414       -0.7880632591       -0.9527039908
 H         -5.7913522275       -0.4592083726       -2.0444378757
 C         -4.1402041156        0.9044213642       -2.2669159361
 H         -4.3916378916        1.9486842688       -2.0831507416
 H         -4.3513377658        0.7162229865       -3.3215119522
 C         -2.6309213571        0.6913221354       -2.0713950692
 H         -2.2816857332       -0.0836360490       -2.7607086929
 H         -2.1007309435        1.6109158349       -2.3375626970
 H         -4.7773622119        0.1737237084        1.4964092152
 H         -5.5735540539        1.7409597840        1.5865045211
 H         -3.3385702877        2.3469091995        1.5729696354
 H         -3.6883600447        2.4646342343       -0.1620554307
 O         -2.0397395462        0.3417145661        1.6496233702
 C         -1.1242029083       -0.6907964285        1.7261796928
 O         -0.7521479738       -0.9686757834        2.8855406264
 H          1.5977516712       -0.1991584056        0.4444921265
 C          2.0457084744       -0.9641816203       -0.1731239160
 C          1.4687853515       -2.2270103305       -0.2082929461
 C          2.0630855239       -3.2075415562       -0.9923556835
 C          3.1968213346       -2.9186025471       -1.7316267062
 C          3.7638451745       -1.6584487773       -1.6986775543
 C          3.1801404074       -0.6714408500       -0.9114241319
 N          3.7070639533        0.6253290696       -0.8831990906
 S          3.4816290828        1.6365898689        0.4191721407
 O          4.4391701335        2.7022540341        0.2080802264
 O          3.5945040533        0.9343741857        1.6767207225
 C          1.8434332767        2.2990904878        0.2113316221
 C          1.4502142782        2.7197166293       -1.0431629205
 C          0.2028024718        3.3036030236       -1.1912609686
 C         -0.6219790378        3.4638354603       -0.0887550429
 C         -0.2139084331        3.0325910463        1.1634659295
 C          1.0297125612        2.4423318827        1.3171392413
 H          1.3775335331        2.0805698861        2.2727621330
 H         -0.8553092802        3.1483571134        2.0225826224
 H         -1.5869561195        3.9308759094       -0.2027420386
 H         -0.1190259492        3.6380014868       -2.1645781256
 H          2.1189573394        2.5849990255       -1.8768724300
 H          4.5912205469        0.7580064201       -1.3498844983
 H          4.6455182878       -1.4336825631       -2.2789926887
 H          3.6464358941       -3.6872846141       -2.3417400372
 H          1.6367055436       -4.1965049568       -1.0297016251
 C          0.2405699062       -2.4729988176        0.6331536350
 H          0.5574033798       -2.5278030448        1.6859444290
 C         -0.4846773485       -3.7551745598        0.2744277017
 C         -0.0975078146       -5.0533912500        0.9146428478
 C         -1.3839194828       -4.3850370446        1.2937328900
 H         -2.3129610102       -4.8245033880        0.9627530938
 H         -1.4479514309       -3.9044945649        2.2595759000
 H          0.7102459109       -5.0369955288        1.6308646054
 H         -0.1465650079       -5.9557697451        0.3239134443
 H         -0.8123391373       -3.7696027660       -0.7589986612
 O         -0.7776661025       -1.3673310695       -1.8088029415
