  62
        -98.94398104
 C         -1.6314343907       -1.5039681511       -0.2658183237
 C         -2.6947046913       -0.8685611228        0.4150059752
 C         -3.1123315344        0.4363490351       -0.1139772764
 C         -2.4979948123        0.9322323633       -1.2032447382
 C         -2.7438952142        2.2870203112       -1.8037061357
 C         -1.9719173705        3.3552160959       -1.0020692082
 C         -2.8588451125        4.3435761589       -0.2417283225
 H         -2.2175968929        4.8726292371        0.4667983313
 H         -3.2526542408        5.0802906305       -0.9458903087
 C         -4.0478007439        3.7431828808        0.5149147839
 H         -4.4102551863        4.5140352621        1.1984797020
 H         -4.8609713421        3.5385213609       -0.1833156027
 C         -3.7567952750        2.4694413804        1.3190191563
 H         -4.2952959712        2.5313830551        2.2671682140
 H         -2.6940928238        2.4034261563        1.5597401388
 C         -4.1976173855        1.1648908402        0.6271349761
 H         -5.0371500169        1.3666864506       -0.0435483399
 H         -4.5446044346        0.4606606393        1.3890316105
 H         -1.3330916700        3.9258150781       -1.6788155228
 H         -1.3028298261        2.8448327702       -0.3042739876
 H         -2.3857592843        2.2566846322       -2.8331890584
 H         -3.8097238910        2.5038584127       -1.8092571083
 O         -1.5059954502        0.2738957811       -1.8540869652
 C         -1.0112693256       -0.9260881220       -1.3715627745
 O         -0.0396848462       -1.3754550866       -2.0113396452
 O         -3.2584241672       -1.3659658572        1.4291578559
 C         -1.0498806606       -2.7891184272        0.2959727587
 C          0.3924704240       -2.5469129293        0.6710299506
 C          1.4227581085       -3.4393910879        0.4043539945
 C          2.7291324031       -3.1221714665        0.7373707451
 C          3.0393482521       -1.9047243790        1.3157357941
 C          2.0127724327       -1.0112730050        1.5984392905
 C          0.7032297277       -1.3516260059        1.3073645251
 H         -0.0819825168       -0.6471358591        1.5394643054
 N          2.2632988528        0.2597422138        2.1591824914
 S          1.8843048955        1.5838599482        1.2002024860
 O          2.2915539012        2.7369672356        1.9744886790
 O          0.4989350510        1.5358493853        0.8122706000
 C          2.9614497855        1.4116616630       -0.2110325697
 C          4.1542960087        2.1101316565       -0.2150968064
 C          5.0401727355        1.9225374071       -1.2630879049
 C          4.7250884453        1.0332078159       -2.2798813988
 C          3.5264123215        0.3376506112       -2.2586279514
 C          2.6316203239        0.5239751525       -1.2153204900
 H          1.6922454043       -0.0062746741       -1.1870673345
 H          3.2710365641       -0.3559082959       -3.0437607349
 H          5.4158500299        0.8810715592       -3.0941679225
 H          5.9715498618        2.4651631915       -1.2822385521
 H          4.3540497652        2.7910667958        0.5966043501
 H          3.2049945375        0.3704446787        2.5108873217
 H          4.0618629396       -1.6448093244        1.5449601995
 H          3.5195954449       -3.8246233670        0.5218823643
 H          1.2042332777       -4.3804145051       -0.0734585315
 H         -1.6199375776       -2.9943025662        1.2145515076
 C         -1.2396736443       -3.9412481642       -0.6674520051
 C         -1.3887733515       -5.3413084139       -0.1533288387
 C         -2.5728543643       -4.6227662793       -0.7246948176
 H         -2.9528686152       -4.9321529143       -1.6866502498
 H         -3.3369721270       -4.2710069751       -0.0467869808
 H         -0.9579920336       -6.1492587242       -0.7251996932
 H         -1.3546636540       -5.4880805807        0.9156245516
 H         -0.7143560893       -3.7897251071       -1.6035987587
