  62
        -98.94532708
 C         -2.3414379465       -0.4672256059        0.0982499376
 C         -1.5640423704        0.2239747376       -0.8576423009
 C         -1.6675478797        1.6938661159       -0.8561897271
 C         -2.4446612980        2.2951402510        0.0612542764
 C         -2.7786422847        3.7580576784        0.2323416997
 C         -1.6975152874        4.7979025941       -0.0696348258
 C         -0.2913169800        4.4221547781        0.4187960028
 H          0.1089065790        5.2402548196        1.0209331943
 H         -0.3358333368        3.5387748233        1.0597877468
 C          0.6859680815        4.1497013731       -0.7255413432
 H          1.7056202685        4.2421853610       -0.3431738643
 H          0.5515371525        4.9066610070       -1.5018406426
 C          0.5596407671        2.7575818304       -1.3387150726
 H          1.2892713587        2.6732374407       -2.1481524210
 H          0.8253418349        2.0155429304       -0.5819120872
 C         -0.8340430520        2.4029689523       -1.8861980520
 H         -1.3395382295        3.2834329030       -2.2763254206
 H         -0.7042394127        1.6884810220       -2.7036395261
 H         -2.0155741991        5.7244013107        0.4124263376
 H         -1.6663529429        4.9957322152       -1.1398110221
 H         -3.6581313072        3.9698619128       -0.3846341201
 H         -3.0921395685        3.8554349681        1.2753193118
 O         -3.1356956577        1.5876941739        1.0031308349
 C         -3.1025583685        0.2063267717        1.0492421032
 O         -3.7839716740       -0.2977691518        1.9672835673
 H         -0.3814814638       -0.9686243228        1.6554398879
 C         -0.0373093888       -1.8295901015        1.1006475097
 C         -0.9107280616       -2.4955263349        0.2506832364
 C         -0.4432930585       -3.6079664656       -0.4389145210
 C          0.8705448843       -4.0205783547       -0.2984487398
 C          1.7497631478       -3.3223537796        0.5089827276
 C          1.2891119593       -2.2135760254        1.2091610721
 N          2.1486791253       -1.4482117173        2.0260438442
 S          2.3981880580        0.1453935401        1.5646130010
 O          3.3666685125        0.6614468820        2.5087944464
 O          1.1388934767        0.8400921207        1.5027734415
 C          3.1597472183        0.0228470400       -0.0454303704
 C          4.5289066839        0.1916423620       -0.1317875749
 C          5.1511531367        0.0351068295       -1.3591364640
 C          4.3975959975       -0.2970600264       -2.4751411146
 C          3.0263781029       -0.4678126075       -2.3701390851
 C          2.3943880498       -0.3096148440       -1.1455304224
 H          1.3258353589       -0.4307036289       -1.0559452516
 H          2.4313848137       -0.7250327144       -3.2317030301
 H          4.8804445501       -0.4229413559       -3.4314596422
 H          6.2176654861        0.1700529362       -1.4408737098
 H          5.0715709831        0.4508654440        0.7630169422
 H          3.0459535108       -1.8853779808        2.1888925634
 H          2.7817354311       -3.6270026915        0.5979191090
 H          1.2190047349       -4.8863971362       -0.8403179231
 H         -1.1080933062       -4.1499553905       -1.0914470231
 C         -2.3261218052       -1.9845205833        0.1347523730
 H         -2.8722446974       -2.2723988742        1.0456573298
 C         -3.0620614490       -2.5342855718       -1.0713032320
 C         -3.8261446437       -3.8198341457       -0.9762261653
 C         -4.5600658025       -2.5169295812       -1.0705522159
 H         -5.0740982671       -2.2764080545       -1.9889964967
 H         -5.0482343047       -2.1353543352       -0.1851967756
 H         -3.8285043688       -4.3321022455       -0.0259487876
 H         -3.8415359969       -4.4759544999       -1.8334628031
 H         -2.5604969695       -2.3017397417       -2.0037585521
 O         -0.8313475604       -0.3631136293       -1.6971065841
