  62
        -98.94050706
 C         -1.3658834496       -0.9479841104       -0.1317261909
 C         -2.4765811095       -0.9335374013        0.7485992292
 C         -3.4697418597        0.1380384387        0.5696192101
 C         -3.2821404998        1.0496293695       -0.4025787892
 C         -4.0847994300        2.2735311897       -0.7924613982
 C         -5.5031889800        2.4771857591       -0.2663662180
 C         -6.5301545999        1.4751685494       -0.7929805188
 H         -7.4766201799        1.6545869689       -0.2783912286
 H         -6.6879928899        1.6674270703       -1.8572170086
 C         -6.1527904197        0.0037412494       -0.6414675100
 H         -6.9663465996       -0.5946158404       -1.0604336304
 H         -5.2598359597       -0.2081564801       -1.2330164702
 C         -5.9206325296       -0.4671498818        0.7928579396
 H         -5.8228146395       -1.5557661417        0.7699005088
 H         -6.7904877896       -0.2226412524        1.4054974999
 C         -4.6634201896        0.0943859978        1.4797635801
 H         -4.8518304198        1.0747295275        1.9115274509
 H         -4.3971054595       -0.5785454328        2.3001489795
 H         -5.8154447601        3.4729242594       -0.5930983772
 H         -5.5030600100        2.4889905483        0.8196389920
 H         -4.1042008900        2.2808142006       -1.8871120082
 H         -3.4745939801        3.1328959496       -0.4913162975
 O         -2.1956580098        1.0025220103       -1.2241636093
 C         -1.2152252497        0.0270161004       -1.1169929901
 O         -0.3042481397        0.1528799512       -1.9578245100
 O         -2.6333049994       -1.7932446520        1.6581613185
 C         -0.3510452894       -2.0535880205        0.0858314182
 C          0.7456577506       -1.6437581911        1.0435622485
 C          1.2980301507       -2.5756987817        1.9160501278
 C          2.3163680007       -2.2151929123        2.7787921080
 C          2.8104200305       -0.9231438422        2.7825155390
 C          2.2625751604        0.0182015984        1.9185126398
 C          1.2370008504       -0.3477449310        1.0571042395
 H          0.8102896203        0.3988789694        0.4069172402
 N          2.7257125202        1.3411607585        1.9206258009
 S          2.8284599101        2.2148158796        0.4969305615
 O          3.7261370699        3.3036071495        0.8248183824
 O          1.5145520800        2.6000405598        0.0494051519
 C          3.6326400102        1.1093178506       -0.6476916294
 C          4.9802964902        0.8752526806       -0.4458045596
 C          5.6398951203       -0.0178076386       -1.2725823303
 C          4.9420920903       -0.6643625079       -2.2821218908
 C          3.5931698303       -0.4138514679       -2.4739529406
 C          2.9248996802        0.4811886213       -1.6508113898
 H          1.8728764502        0.6842557613       -1.7801059396
 H          3.0458931804       -0.9107101974       -3.2596082210
 H          5.4519553204       -1.3648066873       -2.9246389014
 H          6.6909089303       -0.2090200586       -1.1279541605
 H          5.4879485202        1.4090960701        0.3411763208
 H          3.5227693702        1.5096015681        2.5167083110
 H          3.6030038805       -0.6377063327        3.4568980992
 H          2.7316587708       -2.9462060928        3.4552987674
 H          0.9125149008       -3.5836798718        1.9268205070
 H         -0.9112159593       -2.8718052409        0.5605895876
 C          0.2744575306       -2.5790568194       -1.1925936022
 C          0.7198846908       -4.0070484993       -1.2729941434
 C         -0.4845747493       -3.5531874388       -2.0407563230
 H         -0.4175439493       -3.4602709179       -3.1140744329
 H         -1.4589538492       -3.8636591492       -1.6919057532
 H          1.6232299608       -4.2317911787       -1.8183097136
 H          0.5570048309       -4.6374568000       -0.4125800039
 H          0.8713674805       -1.8372072889       -1.7060922916
