  62
        -98.93937572
 C         -2.1034393289       -0.2667090523       -1.0631092734
 C         -2.9331213247        0.8530518084       -0.8051034806
 C         -4.3400519938        0.5492282342       -0.4935340802
 C         -4.7565162502       -0.7287904428       -0.4693162317
 C         -6.1435394163       -1.1752843247       -0.1101615713
 C         -6.2643946409       -1.4601165330        1.3934475762
 C         -5.7143022067       -0.3426650575        2.2798349338
 H         -5.8814330202       -0.6393488187        3.3175690428
 H         -4.6335195584       -0.2738125241        2.1358951812
 C         -6.3477930419        1.0336430933        2.0327338591
 H         -7.2915073682        0.9164105984        1.4988243684
 H         -6.5761681423        1.4919053518        2.9973185560
 C         -5.4543149988        2.0158004391        1.2730524534
 H         -4.4737249291        2.0643062889        1.7528442258
 H         -5.9037896640        3.0097174814        1.3454392149
 C         -5.2479066946        1.7149334447       -0.2168010370
 H         -6.2159132310        1.5724167549       -0.7012334942
 H         -4.7623622662        2.5858596691       -0.6666678162
 H         -7.3166747473       -1.6298232232        1.6289132040
 H         -5.7139042064       -2.3769694956        1.6171791865
 H         -6.8547950403       -0.4054206401       -0.4031657637
 H         -6.3637581135       -2.0900551437       -0.6630872608
 O         -3.9334185036       -1.7776511306       -0.7277225471
 C         -2.5965988909       -1.5738541411       -1.0207032739
 O         -1.9551492048       -2.6234280215       -1.2325750209
 H          1.5565077246       -1.6395337046       -0.8251649923
 C          1.3109968295       -0.9460082365       -0.0351872771
 C          0.2179264995       -0.1013127740       -0.1604926386
 C         -0.0729688266        0.7765541587        0.8803795224
 C          0.7077712416        0.7964152539        2.0208742028
 C          1.8045802291       -0.0404508024        2.1374685416
 C          2.1089851139       -0.9136168929        1.1011195292
 N          3.2279243165       -1.7685882661        1.1769787201
 S          4.4374395572       -1.5505136638        0.0386560176
 O          3.9117995824       -1.7843255690       -1.2807307470
 O          5.5226332668       -2.4030398503        0.4673527202
 C          4.9013203983        0.1622971758        0.2251239404
 C          4.1533956837        1.1291768742       -0.4164879823
 C          4.4631910967        2.4638066311       -0.2084929935
 C          5.5097040456        2.8064635821        0.6340149655
 C          6.2533119126        1.8234927458        1.2697766835
 C          5.9446359973        0.4875392581        1.0698981257
 H          6.4982792910       -0.3093075854        1.5398174975
 H          7.0687629219        2.0936120244        1.9212359012
 H          5.7472091444        3.8463307504        0.7937639963
 H          3.8836730575        3.2261050137       -0.7043054226
 H          3.3505482125        0.8262566409       -1.0679382171
 H          3.6415219698       -1.8115284173        2.0983145750
 H          2.4177648377       -0.0219077196        3.0259725595
 H          0.4672052538        1.4775493830        2.8228598751
 H         -0.9118895189        1.4474409967        0.7779565650
 C         -0.6284342978       -0.1434018873       -1.4079394077
 H         -0.3793014750       -1.0758537717       -1.9390624716
 C         -0.3334963692        1.0145164269       -2.3553473299
 C          0.5864487444        2.1424999569       -2.0054016648
 C          1.0177269357        1.1095450583       -3.0001864824
 H          1.0754484515        1.3833372336       -4.0429655720
 H          1.7607246149        0.3834712312       -2.7004261033
 H          0.3258800832        3.1267531884       -2.3632612354
 H          1.0465530098        2.1411242921       -1.0295626480
 H         -1.1858624363        1.2632312636       -2.9776400827
 O         -2.5417520162        2.0476107927       -0.8269893324
