  62
        -98.94513931
 C         -1.5305922899       -0.8137513246        0.0089881920
 C         -2.8072633075       -1.4210812958        0.0447624917
 C         -3.9052209299       -0.5753324559        0.5324860059
 C         -3.6398815943        0.6834179367        0.9279001025
 C         -4.6710778685        1.6695314559        1.3935690073
 C         -5.2070854087        2.5059947348        0.2232943183
 C         -5.6340267378        1.6735966215       -0.9857090968
 H         -6.0224954231        2.3651459421       -1.7365336035
 H         -4.7530692793        1.1926790561       -1.4169105113
 C         -6.6931134583        0.6056390407       -0.6787426933
 H         -7.1849469210        0.8322355101        0.2679803999
 H         -7.4587183681        0.6373837366       -1.4569205195
 C         -6.1568221672       -0.8266572395       -0.6404698785
 H         -7.0106520911       -1.5095739271       -0.6347533701
 H         -5.5840425471       -1.0278591090       -1.5493698603
 C         -5.2810073021       -1.1790453278        0.5685915307
 H         -5.7992570806       -0.9062850348        1.4902915148
 H         -5.1326551394       -2.2630515171        0.5661317993
 H         -6.0544796314        3.0948149850        0.5791817731
 H         -4.4233052221        3.1963349248       -0.0964080985
 H         -5.4873775523        1.1347543055        1.8751585432
 H         -4.2055404958        2.3357037482        2.1217349969
 O         -2.3947902607        1.2229834335        0.9039063206
 C         -1.3079246017        0.4953405509        0.4383206930
 O         -0.2274815000        1.1102782687        0.4619765259
 O         -3.0176920446       -2.6135633573       -0.3078728473
 C         -0.3463617810       -1.6094584443       -0.5073650262
 C          0.7489716558       -1.6423260938        0.5285249315
 C          0.4302662790       -1.9813046895        1.8415266323
 C          1.4016129037       -1.9955798944        2.8226809266
 C          2.7107331164       -1.6621901836        2.5202774931
 C          3.0425207925       -1.3393674810        1.2107744435
 C          2.0670424348       -1.3454940596        0.2223173415
 H          2.3577368510       -1.1163234394       -0.7881015364
 N          4.3615669486       -1.0171025212        0.8683079311
 S          4.7006555623        0.0164424344       -0.3963995588
 O          4.5403928183       -0.6713314220       -1.6536512376
 O          6.0393154322        0.4893958979       -0.1114507350
 C          3.5479516839        1.3722866996       -0.2855263469
 C          3.4467839413        2.0608740131        0.9058589444
 C          2.5700469792        3.1290943730        0.9884467657
 C          1.8158778009        3.4914622573       -0.1156372099
 C          1.9329351528        2.7937182896       -1.3059947684
 C          2.8055769323        1.7223025500       -1.3936968540
 H          2.9204412665        1.1472239990       -2.2994157739
 H          1.3389452522        3.0735747055       -2.1618785791
 H          1.1261176889        4.3176373215       -0.0462922605
 H          2.4699908547        3.6712548791        1.9151176107
 H          4.0485201383        1.7596836903        1.7482614603
 H          4.9951199014       -0.8966365046        1.6439707039
 H          3.4680908470       -1.6578243363        3.2889628416
 H          1.1375601820       -2.2577194226        3.8362494489
 H         -0.5950348405       -2.2269226741        2.0830580041
 H         -0.7181317613       -2.6343033859       -0.6559161130
 C          0.1085549485       -1.0543804529       -1.8410034202
 C          0.7895915792       -1.9409506880       -2.8389007437
 C         -0.6086499187       -1.4640103392       -3.0907864510
 H         -0.7723639256       -0.7232026443       -3.8590454614
 H         -1.4167114693       -2.1738457717       -2.9893565637
 H          1.5947958259       -1.5314483172       -3.4308881454
 H          0.9312561760       -2.9771557430       -2.5708322070
 H          0.4356693839       -0.0226558591       -1.7665351871
