  62
        -98.94278645
 C         -1.8172006069       -1.0302237889       -0.1810222010
 C         -3.1993928981       -1.3145550106       -0.0346647103
 C         -4.1253436218       -0.2560308061       -0.4518958595
 C         -3.6396096332        0.9040564159       -0.9290925307
 C         -4.4530968051        2.0688981154       -1.4243758762
 C         -4.9356794170        3.0124184492       -0.3141066622
 C         -6.0562411923        2.4597792920        0.5675635261
 H         -6.4450900849        3.2952962130        1.1530328424
 H         -6.8691586224        2.0988673589       -0.0633010634
 C         -5.6147203306        1.3472147149        1.5287552189
 H         -4.5262168719        1.3568391506        1.6212128056
 H         -6.0217323774        1.5422591727        2.5234949889
 C         -6.0642407871       -0.0565716405        1.1233105232
 H         -5.6658684247       -0.7683451159        1.8509267622
 H         -7.1543471350       -0.1166496890        1.1566568284
 C         -5.5943209057       -0.4925319228       -0.2706812122
 H         -5.7738523418       -1.5657280904       -0.3726727387
 H         -6.1615712850        0.0312891046       -1.0399873102
 H         -4.0811891985        3.2835231315        0.3100840337
 H         -5.2978170123        3.9234191451       -0.7961246030
 H         -3.8070837155        2.6339312924       -2.0998429460
 H         -5.3103013738        1.7021721794       -1.9899062397
 O         -2.3074668050        1.1484536033       -1.0326232640
 C         -1.3635619180        0.2042231393       -0.6456317100
 O         -0.1884450025        0.5952573708       -0.7660161967
 O         -3.6374210142       -2.4024638660        0.4247326712
 C         -0.8301157263       -2.1049989952        0.2351289174
 C          0.2745003027       -1.5191705844        1.0785031889
 C         -0.0592188880       -0.9242275107        2.2933625998
 C          0.9149347599       -0.3808861497        3.1070821572
 C          2.2457610640       -0.4228623608        2.7287064218
 C          2.5915082814       -1.0175922781        1.5217770980
 C          1.6085561579       -1.5636579281        0.7055761584
 H          1.9040822565       -1.9943858064       -0.2359205277
 N          3.9414826154       -1.1157809732        1.1390354528
 S          4.4814407873       -0.5857722265       -0.3528420408
 O          3.7542087743       -1.2434373063       -1.4060996033
 O          5.9095219267       -0.8195594677       -0.3212968633
 C          4.1796361503        1.1726066184       -0.3580245131
 C          2.8905601657        1.6400931125       -0.5158900664
 C          2.6710496040        3.0086190168       -0.4637177312
 C          3.7301344637        3.8784114832       -0.2567513476
 C          5.0186632362        3.3901203281       -0.0985093627
 C          5.2466834344        2.0247960299       -0.1445837136
 H          6.2306165401        1.5995268772       -0.0291854380
 H          5.8421650762        4.0673261983        0.0618864295
 H          3.5493590793        4.9412902341       -0.2189275386
 H          1.6641835616        3.3757634922       -0.5848548553
 H          2.0726751684        0.9554927938       -0.6751538559
 H          4.5886237565       -0.8072575639        1.8511383142
 H          3.0105228950       -0.0019953035        3.3639694378
 H          0.6386403865        0.0802810730        4.0433478121
 H         -1.0995932341       -0.8909413159        2.5881761323
 H         -1.4191077940       -2.7824067418        0.8769766996
 C         -0.3118169699       -2.9490956590       -0.9196056872
 C         -1.1384925208       -3.1841057818       -2.1473676693
 C          0.1034002498       -2.3505224568       -2.2285155778
 H          0.9740333554       -2.7549964263       -2.7244597567
 H          0.0022404388       -1.2829562111       -2.3457483802
 H         -1.1299042935       -4.1686723550       -2.5902952224
 H         -2.0937845400       -2.6837007502       -2.2130671587
 H          0.2726918809       -3.7951114836       -0.5695176613
