  62
        -98.93909271
 C         -2.3420176759       -0.6774808371        0.1196468372
 C         -2.5770474844        0.7200636766        0.2140847157
 C         -3.8178612606        1.2204224883       -0.3900904813
 C         -4.6441599506        0.3523977212       -1.0012442636
 C         -5.9657473906        0.7096159854       -1.6159519146
 C         -7.1082198768        0.5650830980       -0.6008582718
 C         -6.8327494895        1.2464941936        0.7394757746
 H         -7.7173318713        1.1056272522        1.3642938573
 H         -6.0043573901        0.7355986070        1.2356212577
 C         -6.5131816436        2.7443533455        0.6359946796
 H         -7.0755498559        3.2766446338        1.4059815973
 H         -6.8430775473        3.1281529648       -0.3299805631
 C         -5.0379537375        3.0937239889        0.8416261314
 H         -4.9588096334        4.1770370393        0.9664733369
 H         -4.6761550881        2.6318172745        1.7638520446
 C         -4.0921866408        2.6952633571       -0.2985895201
 H         -4.4792155287        3.0738506296       -1.2469169686
 H         -3.1241556831        3.1684572471       -0.1088942351
 H         -7.2743514528       -0.4985890286       -0.4159693737
 H         -8.0162769971        0.9798079214       -1.0421132591
 H         -5.9221644707        1.7316262919       -1.9872497146
 H         -6.1483160231        0.0347538973       -2.4537437547
 O         -4.3828476720       -0.9744211253       -1.0853790808
 C         -3.2375243071       -1.5278557388       -0.5300002030
 O         -3.1605630316       -2.7613247121       -0.6915466943
 H          1.2604644012        0.1637468687        0.5184248449
 C          1.1688411481       -0.6136343932       -0.2264827742
 C          0.0272978022       -1.4004995572       -0.2735033590
 C         -0.0722485605       -2.3794100797       -1.2572950561
 C          0.9549178703       -2.5644273693       -2.1641370110
 C          2.1038100478       -1.7959187892       -2.0980164677
 C          2.2085712106       -0.8091026150       -1.1250048683
 N          3.3513868852        0.0025001477       -1.0457986849
 S          3.8836670469        0.4846952737        0.4825693111
 O          3.7974913867       -0.6233100523        1.4070364563
 O          3.1885879163        1.6889091853        0.8620293358
 C          5.5900322637        0.8616679158        0.1271197894
 C          6.5576255817       -0.0970066701        0.3618886600
 C          7.8776659739        0.1939621147        0.0553024062
 C          8.2054820332        1.4303350826       -0.4805475466
 C          7.2233753938        2.3826858740       -0.7098075872
 C          5.9016872699        2.0987563429       -0.4047214290
 H          5.1059324535        2.8095353119       -0.5560671641
 H          7.4823388883        3.3440359703       -1.1233026485
 H          9.2333744273        1.6545100718       -0.7180730311
 H          8.6437593435       -0.5427557851        0.2357486802
 H          6.2571423389       -1.0404730624        0.7885512066
 H          4.1122460269       -0.3317663377       -1.6213312473
 H          2.9101397991       -1.9526556368       -2.7984695724
 H          0.8654015859       -3.3262046302       -2.9239559144
 H         -0.9649447422       -2.9831705822       -1.3082693284
 C         -1.0616952039       -1.1942780977        0.7529393502
 H         -0.7278152313       -0.3883485057        1.4217073045
 C         -1.2502583357       -2.4516609928        1.5803577126
 C         -0.1760060561       -2.8371768368        2.5513848540
 C         -1.4956233405       -2.3338260512        3.0529574779
 H         -2.1714426679       -3.0344562406        3.5200294261
 H         -1.5341510021       -1.3404008917        3.4763606033
 H          0.0546913236       -3.8842314361        2.6743614049
 H          0.6838810182       -2.1870941293        2.6292655186
 H         -1.7607211375       -3.2452441658        1.0508654070
 O         -1.7833304678        1.5152260668        0.7872934185
