  62
        -98.94108932
 C         -2.2018698182       -1.0148777136        0.6629040506
 C         -2.1835108313       -0.1114404907       -0.4292153642
 C         -3.0522049328        1.0675331596       -0.2935987388
 C         -3.7444901620        1.2692723843        0.8410375589
 C         -4.6580064380        2.4291392378        1.1307491295
 C         -6.0794750969        2.2556402197        0.5780190105
 C         -6.2088316937        2.3877903794       -0.9400304492
 H         -7.2745244016        2.4635681889       -1.1647113323
 H         -5.7408827763        3.3181495089       -1.2634427199
 C         -5.6205292636        1.2115695900       -1.7318763673
 H         -5.4850570005        0.3556525430       -1.0666629775
 H         -6.3261198392        0.9050419494       -2.5071584296
 C         -4.2915869707        1.5152127211       -2.4240408194
 H         -4.4416575701        2.2830630289       -3.1861299192
 H         -3.9496865525        0.6063639963       -2.9258264083
 C         -3.1783659225        1.9801894439       -1.4757785190
 H         -2.2287623906        1.9543340724       -2.0168966620
 H         -3.3645546517        3.0033257096       -1.1490731315
 H         -6.4599285132        1.2812005908        0.8930189019
 H         -6.7042347714        3.0220994003        1.0422958415
 H         -4.7186458163        2.5130601580        2.2180856138
 H         -4.2212778036        3.3469872893        0.7357147764
 O         -3.6692254484        0.4202026955        1.9009902678
 C         -2.9107624870       -0.7383380244        1.8343184392
 O         -2.9357830382       -1.4232152220        2.8770297519
 H          0.3027142290       -0.5634093846        1.7263073461
 C          0.7555331266       -1.0516216692        0.8705674799
 C          0.0181401883       -1.9979621508        0.1688171793
 C          0.6022634228       -2.6074540776       -0.9329172694
 C          1.8872842353       -2.2681565410       -1.3193580065
 C          2.6166685824       -1.3255397534       -0.6187336594
 C          2.0400035849       -0.7057456952        0.4823074465
 N          2.7753502795        0.2472906146        1.2104493280
 S          3.5247372908        1.4917651827        0.3667156068
 O          3.6634904413        2.5631365682        1.3303485833
 O          2.8241795361        1.8137807343       -0.8545468305
 C          5.1388815199        0.8371925386       -0.0044878638
 C          5.5848164345        0.8048925072       -1.3111990568
 C          6.8472826599        0.2968643190       -1.5759522975
 C          7.6372303894       -0.1659354637       -0.5347957875
 C          7.1757450630       -0.1234323603        0.7725580275
 C          5.9152792920        0.3840587149        1.0441391804
 H          5.5206850944        0.4386004769        2.0449772160
 H          7.7930531758       -0.4839108691        1.5795711025
 H          8.6185280704       -0.5618491055       -0.7435182148
 H          7.2076413114        0.2638248717       -2.5916014984
 H          4.9325102968        1.1705491552       -2.0884358477
 H          2.2764167381        0.6175112081        2.0067362195
 H          3.6147693013       -1.0550936630       -0.9222066584
 H          2.3266284428       -2.7432242122       -2.1832833957
 H          0.0420422824       -3.3265001481       -1.5073521154
 C         -1.3801891004       -2.2930380582        0.6545587917
 H         -1.3086733535       -2.5899704276        1.7143263846
 C         -2.0428369384       -3.4527640417       -0.0740042328
 C         -3.5358828008       -3.5558151817       -0.1589083870
 C         -2.7322131390       -3.2845719482       -1.3932349796
 H         -2.6377074653       -4.0739305052       -2.1246386339
 H         -2.7581774221       -2.2950548659       -1.8207621739
 H         -3.9902799036       -4.5280571351       -0.0407841434
 H         -4.1178211526       -2.7489413271        0.2631085232
 H         -1.5080457230       -4.3845868475        0.0815683447
 O         -1.4889115253       -0.2666211432       -1.4655690061
