  62
        -98.93362723
 C          2.1499598391        0.6379432497        0.6972865138
 C          2.8053373836        0.4034735311       -0.5337625039
 C          3.5231061117       -0.8794225582       -0.6614662694
 C          3.4961256286       -1.7596177328        0.3562192354
 C          4.0981200774       -3.1425312073        0.4951603777
 C          5.1700523241       -3.6296440888       -0.4765448949
 C          6.5032218400       -2.8882277531       -0.3848607824
 H          6.9745854702       -3.1368056285        0.5693609197
 H          7.1529651179       -3.2558605588       -1.1821004993
 C          6.4199832130       -1.3664375259       -0.4745817865
 H          5.8611539286       -0.9780952268        0.3793653666
 H          7.4367978822       -0.9714762991       -0.3993722846
 C          5.8034884045       -0.8194594907       -1.7607597821
 H          5.9549757218        0.2633052602       -1.7630960137
 H          6.3282805734       -1.2316252319       -2.6247705382
 C          4.2958781343       -1.0749242280       -1.9338943412
 H          3.9069194181       -0.3384988187       -2.6432609537
 H          4.1060780076       -2.0607594979       -2.3514971319
 H          4.7931772580       -3.6097279139       -1.4948099763
 H          5.3590134895       -4.6779589926       -0.2295911169
 H          4.4916370237       -3.1929705330        1.5153973617
 H          3.2540371796       -3.8399690818        0.4561162541
 O          2.7996174050       -1.5093966711        1.5049208706
 C          2.1208363041       -0.3223049829        1.7063286390
 O          1.5329993075       -0.2466736800        2.8055935535
 H         -0.6223241249        0.2518379630        0.8775168839
 C         -0.7537959208        1.0248179458        0.1294150260
 C          0.2163072537        2.0140437032        0.0133307837
 C          0.0391075963        3.0086397365       -0.9374921492
 C         -1.0743999104        2.9959504542       -1.7609992925
 C         -2.0303914853        2.0037286088       -1.6520121222
 C         -1.8693795058        1.0101166689       -0.6936584600
 N         -2.8319096684       -0.0138330248       -0.5747660540
 S         -4.4504718909        0.4727001338       -0.5138191794
 O         -4.8832125414        0.7871562021       -1.8518620512
 O         -4.6167227806        1.5234979847        0.4662305109
 C         -5.2421426630       -1.0245910393        0.0378428482
 C         -5.5444571694       -1.9985094491       -0.8947739543
 C         -6.1441393029       -3.1719525280       -0.4662981387
 C         -6.4288768215       -3.3512797864        0.8793461417
 C         -6.1201478558       -2.3642804765        1.8032841304
 C         -5.5191624244       -1.1886069762        1.3816580074
 H         -5.2704666794       -0.3911099108        2.0636956508
 H         -6.3452126634       -2.5050034864        2.8482721964
 H         -6.8973701942       -4.2646674785        1.2103354845
 H         -6.3883400271       -3.9407995662       -1.1814372143
 H         -5.3133798674       -1.8109515161       -1.9302884666
 H         -2.6249274109       -0.6256523859        0.2038297332
 H         -2.9023749698        1.9898137534       -2.2853784029
 H         -1.1987645534        3.7715147456       -2.5017998937
 H          0.7739884023        3.7893628126       -1.0416365499
 C          1.4045094623        1.9389228477        0.9425929651
 H          1.0192098146        1.8744885702        1.9706167858
 C          2.3386935663        3.1255549866        0.8480995461
 C          1.9809109633        4.4095345626        1.5321661231
 C          3.0893800709        3.5568482744        2.0705796789
 H          4.1068999232        3.8993358211        1.9563905334
 H          2.9149146513        3.0051212101        2.9831628336
 H          2.2382322417        5.3406570069        1.0506305891
 H          1.0514900176        4.4400862675        2.0807936616
 H          2.8594902356        3.1777757529       -0.1002729998
 O          2.7977158712        1.2202893044       -1.4904259744
