  62
        -98.94312796
 C         -2.5851295634        0.0636884106       -0.3726477240
 C         -2.6949258609        1.0800043913        0.6123420344
 C         -2.1275908497        2.3868365349        0.2736925225
 C         -1.5464153494        2.5644649127       -0.9258609610
 C         -0.8760520150        3.8215319705       -1.4090113258
 C          0.5732112299        3.9566912563       -0.9207140517
 C          0.7284381548        4.3508138032        0.5492119331
 H          1.7659457174        4.6614744774        0.6877837215
 H          0.0970868402        5.2143402102        0.7631064025
 C          0.4183598836        3.2212361410        1.5414860904
 H          1.1894523843        3.1989001142        2.3158110260
 H          0.4601493247        2.2599765910        1.0232785571
 C         -0.9267584004        3.3501025890        2.2571082272
 H         -0.9135099604        4.2290253562        2.9065661693
 H         -1.0630900059        2.4660785638        2.8853008266
 C         -2.1394645653        3.4560717044        1.3245187044
 H         -3.0433860538        3.3196652379        1.9238508672
 H         -2.1725055130        4.4413418542        0.8597089588
 H          1.0861841718        3.0069869998       -1.0962202165
 H          1.0565493883        4.7198828199       -1.5357032212
 H         -0.8718580723        3.7735200437       -2.5001577427
 H         -1.4531337586        4.6937161256       -1.0997189910
 O         -1.5153055059        1.5893582006       -1.8693310023
 C         -1.9875083815        0.3091470403       -1.6094824258
 O         -1.8332727017       -0.4738824746       -2.5692435535
 O         -3.2462355064        0.8956637530        1.7318592010
 C         -3.0177496962       -1.3259018693        0.0657262163
 C         -1.8513497366       -1.9699600851        0.7817905157
 C         -1.9968112509       -2.5406658170        2.0402422918
 C         -0.8974385433       -3.0402205383        2.7167114679
 C          0.3690294777       -2.9447211314        2.1693502444
 C          0.5221141275       -2.3836564409        0.9059854286
 C         -0.5891065726       -1.9391024365        0.2072850335
 H         -0.4499306856       -1.5203605893       -0.7782271014
 N          1.7874274476       -2.2399753211        0.3163083074
 S          2.0604406746       -0.8320508356       -0.5872071120
 O          1.3230451131        0.2745227680       -0.0251545295
 O          1.8336957905       -1.1318099326       -1.9788866475
 C          3.8088029081       -0.6014217772       -0.3155882743
 C          4.2349210479        0.3459866449        0.5953469274
 C          5.5948763528        0.4976380300        0.8180296840
 C          6.4996750427       -0.2989386763        0.1327452151
 C          6.0566707782       -1.2459446660       -0.7790997305
 C          4.6988336647       -1.4011795725       -1.0080805386
 H          4.3071332418       -2.1144438726       -1.7145812691
 H          6.7628391649       -1.8616039026       -1.3123611995
 H          7.5570665738       -0.1790157801        0.3079071388
 H          5.9414990070        1.2356191830        1.5232629030
 H          3.4934637516        0.9454340615        1.0992286865
 H          2.5480798398       -2.4349143357        0.9529652671
 H          1.2327538613       -3.2945080941        2.7140269108
 H         -1.0238437686       -3.4796838583        3.6944668728
 H         -2.9739019857       -2.5660494969        2.4991029508
 H         -3.8161886586       -1.1705286435        0.8052376395
 C         -3.5466962078       -2.2264809531       -1.0294856511
 C         -4.4700348999       -3.3490866903       -0.6636586613
 C         -4.9953587975       -2.1571555470       -1.4046170188
 H         -5.2596119286       -2.2652010389       -2.4455087935
 H         -5.6160306139       -1.4548119725       -0.8675121611
 H         -4.3752825974       -4.2837904568       -1.1943293727
 H         -4.7412876680       -3.4574214089        0.3754073145
 H         -2.8349819354       -2.3973863817       -1.8266222745
