  62
        -98.94612600
 C         -1.9299327933       -1.2921834133        0.2723305884
 C         -1.7251263572        0.0935329290        0.0729644321
 C         -2.8827688872        0.9531524242        0.3491495604
 C         -4.0352028390        0.4068950423        0.7780344770
 C         -5.2955147093        1.1540939103        1.1205316895
 C         -6.1805003634        1.4739405144       -0.0920233465
 C         -5.6490700953        2.5716547763       -1.0146252318
 H         -6.4629095196        2.8438449789       -1.6896782905
 H         -5.4071751502        3.4557716824       -0.4240110912
 C         -4.4304025746        2.1600333762       -1.8526179400
 H         -4.5758004333        2.4780843987       -2.8875256184
 H         -4.3460254684        1.0707603818       -1.8628835295
 C         -3.1042301571        2.7544181439       -1.3783741757
 H         -2.3072988773        2.3675147251       -2.0188265994
 H         -3.1287975578        3.8406336687       -1.4909535129
 C         -2.7482716569        2.4207642977        0.0761391149
 H         -1.7036697472        2.6933471949        0.2438645110
 H         -3.3748690597        2.9947207540        0.7583288315
 H         -6.3314945861        0.5568014880       -0.6661467314
 H         -7.1539045249        1.7901560869        0.2899290452
 H         -5.0442665496        2.0776626764        1.6427156147
 H         -5.8617081278        0.5131446130        1.7997461673
 O         -4.1840105254       -0.9303836724        0.9758088534
 C         -3.1463131355       -1.8109072595        0.7155571630
 O         -3.4225005843       -3.0095403521        0.9254066080
 O         -0.6343262621        0.5900544471       -0.3089043794
 C         -0.8019625927       -2.2679199021       -0.0097323355
 C          0.4197575946       -1.8914068854        0.7921501144
 C          0.2890258565       -1.7070320364        2.1670694189
 C          1.3789915906       -1.3624072503        2.9416590046
 C          2.6233421229       -1.1854482331        2.3607623600
 C          2.7666926505       -1.3743422569        0.9924789852
 C          1.6714954923       -1.7374090863        0.2185176990
 H          1.8153686215       -1.8723823411       -0.8398388951
 N          4.0228932196       -1.2285187677        0.3740258756
 S          4.2083130888       -0.1636435501       -0.9052445298
 O          3.3409617384       -0.5402825713       -1.9901277316
 O          5.6275001383       -0.1787776633       -1.1874345766
 C          3.7572720312        1.4299710005       -0.2416222684
 C          4.7701705210        2.2847261492        0.1506829479
 C          4.4406758275        3.5036308858        0.7196331480
 C          3.1073831372        3.8426310897        0.8957386675
 C          2.1049025758        2.9709824553        0.5011369394
 C          2.4250060059        1.7502403601       -0.0737808796
 H          1.6500668237        1.0663958969       -0.3822644243
 H          1.0649816975        3.2230814861        0.6357378573
 H          2.8474622368        4.7901380119        1.3411751189
 H          5.2207124347        4.1823159428        1.0251910617
 H          5.7919456838        1.9799273361       -0.0087992552
 H          4.7828846461       -1.0946672814        1.0266375425
 H          3.4757224197       -0.9086453481        2.9626381845
 H          1.2596168906       -1.2226247161        4.0054738923
 H         -0.6857885183       -1.8363128334        2.6183352497
 H         -1.1524422089       -3.2500611571        0.3402668193
 C         -0.5461350199       -2.3478933526       -1.5004779042
 C          0.0067464888       -3.6025113360       -2.1042021891
 C         -1.4229784582       -3.2221911839       -2.3432027107
 H         -1.7086204204       -2.8743609343       -3.3247531654
 H         -2.1946695841       -3.7841801424       -1.8368889561
 H          0.7076183641       -3.5134866545       -2.9208440780
 H          0.2063638986       -4.4306836428       -1.4409400656
 H         -0.2324473734       -1.4007115343       -1.9257886037
