  62
        -98.93216993
 C         -2.1771220202       -0.9030611762        0.6207203955
 C         -3.3195625406       -0.9810891014       -0.2125345210
 C         -4.3848667856        0.0017706524        0.0526565698
 C         -4.2217404959        0.9080199134        1.0321771335
 C         -5.1760421152        2.0199828593        1.3640330102
 C         -5.0359610713        3.1621885846        0.3374877343
 C         -6.2744612967        3.3845479687       -0.5311087366
 H         -7.0362498308        3.8948403905        0.0619978681
 H         -5.9866786654        4.0540637795       -1.3444398265
 C         -6.9089925732        2.1228989259       -1.1240757140
 H         -7.5913689340        2.4503192864       -1.9112890490
 H         -7.5208459057        1.6296223916       -0.3674343210
 C         -5.9339781936        1.0953847028       -1.7130603283
 H         -4.9994253105        1.5745948023       -2.0054346357
 H         -6.3798248013        0.6868785720       -2.6221567356
 C         -5.6271304958       -0.0984406255       -0.7897546828
 H         -6.4884535035       -0.2923084815       -0.1447909223
 H         -5.4729459100       -0.9869319550       -1.4088081886
 H         -4.8120965018        4.0940532716        0.8590779349
 H         -4.1754121990        2.9458959722       -0.2993111128
 H         -6.1945885188        1.6381621214        1.3753601519
 H         -4.9243907224        2.3746965601        2.3637233068
 O         -3.1053525599        0.9608995928        1.8057240973
 C         -2.0703297576        0.0607095324        1.6280515834
 O         -1.1231084383        0.2118395913        2.4275942670
 H          1.5669242517       -1.0249002352        0.7238235829
 C          1.2399028621       -1.0490444083       -0.3050863716
 C         -0.0585253338       -1.4329841393       -0.6093192242
 C         -0.4631368333       -1.4373869714       -1.9402186981
 C          0.4156018857       -1.0562520200       -2.9373272721
 C          1.7078874150       -0.6689678005       -2.6305683623
 C          2.1252682151       -0.6696269883       -1.3043484917
 N          3.4507429914       -0.3314260001       -0.9794886972
 S          3.7837453574        0.4591301538        0.4735291791
 O          3.7139978028       -0.4965488097        1.5499333741
 O          2.9617954776        1.6425101153        0.5992640316
 C          5.4857171372        0.9098700944        0.1891887956
 C          5.8043949327        2.2095190430       -0.1550567646
 C          7.1304698283        2.5327546222       -0.3980884458
 C          8.1090877791        1.5556961969       -0.2961560240
 C          7.7738797136        0.2551978014        0.0512358121
 C          6.4506460574       -0.0741514334        0.2970576800
 H          6.1435293799       -1.0677872970        0.5785409318
 H          8.5376968575       -0.5012306650        0.1320984942
 H          9.1399294076        1.8098541693       -0.4859322881
 H          7.3941808052        3.5434578302       -0.6650157411
 H          5.0106152139        2.9367836606       -0.2151669701
 H          3.9352849477        0.1116967523       -1.7488145998
 H          2.3914665453       -0.3718046147       -3.4115126535
 H          0.0890725403       -1.0570876015       -3.9663973587
 H         -1.4741949235       -1.7271668840       -2.1806436012
 C         -0.9913795534       -1.8485068466        0.5036781398
 H         -0.4396849070       -1.7436516150        1.4485106832
 C         -1.3957822112       -3.3024217956        0.3482023619
 C         -0.4087070514       -4.3672343858        0.7156096129
 C         -1.6161813471       -4.1353530493        1.5728594118
 H         -2.4084733813       -4.8686056527        1.5609787161
 H         -1.4764409414       -3.6585885328        2.5327179458
 H          0.5509124568       -4.0478636185        1.0949344848
 H         -0.3693190143       -5.2625168589        0.1145412467
 H         -2.0429545049       -3.4820184702       -0.4995372847
 O         -3.4704542587       -1.8228828812       -1.1370468931
