  62
        -98.94350511
 C          1.8612734139        0.8283211213        0.7512244817
 C          2.1621631562        0.4340970994       -0.5749183969
 C          3.5871019083        0.4508724106       -0.9364743757
 C          4.4941146227        0.8544386093       -0.0281375842
 C          5.9791761974        0.8638623982       -0.2449271491
 C          6.6126668501       -0.4594633596        0.2071449570
 C          5.9035797348       -1.7003526741       -0.3356245896
 H          6.4543268155       -2.5725638146        0.0233908442
 H          4.9005845012       -1.7551478476        0.0940029695
 C          5.8009581642       -1.7544263210       -1.8663017624
 H          6.5217566086       -1.0666731369       -2.3100049513
 H          6.0656154685       -2.7602768063       -2.1992069221
 C          4.4066027954       -1.4541099983       -2.4196782756
 H          3.6670355022       -2.0763570643       -1.9090823164
 H          4.3939876569       -1.7321121207       -3.4769054206
 C          3.9520003063        0.0078826838       -2.3253030154
 H          4.7170027406        0.6600250828       -2.7513455354
 H          3.0399841845        0.1106912356       -2.9203406014
 H          7.6576084064       -0.4681819654       -0.1081913044
 H          6.5868630184       -0.5004909057        1.2986484831
 H          6.1867559168        1.0370521661       -1.2989433232
 H          6.4074447787        1.6796397020        0.3398375992
 O          4.1615592723        1.2564588992        1.2258079621
 C          2.8434007575        1.2375324819        1.6520075592
 O          2.6778386167        1.6006206353        2.8347393933
 H         -2.0854411193        0.1066101747        0.3319120419
 C         -1.4742395580       -0.7420203602        0.5895897738
 C         -0.1821239344       -0.5566987822        1.0557458714
 C          0.5694853982       -1.6785379336        1.3964973774
 C          0.0501545554       -2.9494608974        1.2494506251
 C         -1.2389675309       -3.1299373582        0.7796615368
 C         -2.0048228185       -2.0181720544        0.4538702162
 N         -3.3099696768       -2.1669937386       -0.0354599295
 S         -4.5140343477       -1.1062863108        0.4323732897
 O         -4.3235724178       -0.6449210393        1.7876403306
 O         -5.7465862634       -1.8212512043        0.1751067863
 C         -4.3988180133        0.2583455967       -0.7053200228
 C         -4.0742317486        0.0126964858       -2.0246860350
 C         -4.0314875064        1.0765930236       -2.9115308166
 C         -4.3210959187        2.3589289458       -2.4703942205
 C         -4.6516895715        2.5880280834       -1.1438530934
 C         -4.6915327665        1.5288083223       -0.2503894628
 H         -4.9319217315        1.6634710233        0.7923182159
 H         -4.8766038690        3.5859919701       -0.8018991328
 H         -4.2870214747        3.1846960993       -3.1635297042
 H         -3.7706872860        0.9026874705       -3.9431007507
 H         -3.8506793826       -0.9944535269       -2.3344278645
 H         -3.6441647609       -3.1181813918       -0.0848405116
 H         -1.6472228488       -4.1226367753        0.6652953400
 H          0.6505339338       -3.8087447552        1.5087923564
 H          1.5742655233       -1.5393070174        1.7728270627
 C          0.4212448772        0.8162358536        1.2288063066
 H          0.4530145929        1.0381092382        2.3062395658
 C         -0.3613581405        1.9096722391        0.5304240711
 C         -1.5087274266        2.5828606642        1.2196375317
 C         -0.2198205062        3.3196390321        1.0165205904
 H         -0.1898239914        4.1160828439        0.2885007211
 H          0.4188740855        3.4852731625        1.8722203799
 H         -2.3627802443        2.8740502813        0.6269908051
 H         -1.7578799717        2.2528842507        2.2172728686
 H         -0.4280640642        1.7519691098       -0.5401088387
 O          1.2897247066        0.0835741562       -1.4107841743
