  62
        -98.93908261
 C          2.5355940146        1.1528650931        0.6250187271
 C          3.4106739135        0.9831433984       -0.4763897064
 C          4.4691268890       -0.0258112397       -0.3005363974
 C          4.5380101597       -0.7281622911        0.8438389266
 C          5.5257787532       -1.8229416108        1.1232361088
 C          4.9700198693       -3.1930934810        0.7106030610
 C          4.3838273684       -3.2226678981       -0.7010270297
 H          4.0530074831       -4.2456341104       -0.8937041847
 H          3.4944732711       -2.5884786869       -0.7307591758
 C          5.3583621228       -2.7834815512       -1.8028571106
 H          6.3827945423       -2.8323424429       -1.4319554011
 H          5.2817197403       -3.4844110725       -2.6367105619
 C          5.0894744043       -1.3876304739       -2.3679153848
 H          4.0377418173       -1.3049778471       -2.6529543559
 H          5.6855456768       -1.2684575319       -3.2765450809
 C          5.4309670234       -0.2149496867       -1.4401034314
 H          6.4515208072       -0.3248341368       -1.0681291396
 H          5.3766959955        0.7027477975       -2.0329859808
 H          5.7726110219       -3.9287810692        0.7890890404
 H          4.1819254440       -3.4734454208        1.4136359814
 H          6.4494958469       -1.6173103492        0.5858211602
 H          5.7334946930       -1.8330053336        2.1946092140
 O          3.6704943918       -0.5484989259        1.8736329851
 C          2.6518999643        0.3830291120        1.7854337946
 O          1.9246397385        0.4441702190        2.7988368654
 H         -0.9662268318        1.7062482744        1.8648742634
 C         -0.9736478302        1.3338405715        0.8491408455
 C          0.1573608503        1.4850318807        0.0618385608
 C          0.1485149419        0.9635069486       -1.2289743278
 C         -0.9770325977        0.3261856087       -1.7167725012
 C         -2.1089982794        0.1872302203       -0.9312742422
 C         -2.1013753111        0.6814919831        0.3654791101
 N         -3.2422999930        0.5412209257        1.1717439194
 S         -4.0254831523       -0.9429258105        1.2167905346
 O         -4.7207915153       -0.9598952805        2.4851166927
 O         -3.1143498762       -2.0353660182        0.9661783940
 C         -5.2228922170       -0.8262780647       -0.0967571104
 C         -5.2901259323       -1.8166933707       -1.0569377300
 C         -6.2367427637       -1.7107180542       -2.0642460449
 C         -7.0952708663       -0.6225221803       -2.0926748369
 C         -7.0168210221        0.3622407339       -1.1190740917
 C         -6.0741185750        0.2614499164       -0.1085758843
 H         -5.9834459934        1.0027740446        0.6675390550
 H         -7.6860832790        1.2070496676       -1.1446795945
 H         -7.8297154040       -0.5415097622       -2.8783672048
 H         -6.2994923212       -2.4759138978       -2.8212549557
 H         -4.5977570629       -2.6416250468       -0.9982839922
 H         -3.1323546506        0.9170650732        2.1026182949
 H         -2.9849098948       -0.3157825912       -1.3069080254
 H         -0.9743711069       -0.0702354916       -2.7209225776
 H          1.0356273135        1.0602463808       -1.8367201291
 C          1.3863223359        2.1491797743        0.6266860616
 H          1.1909616861        2.3541937022        1.6912157306
 C          1.7344929365        3.4764836093       -0.0331327931
 C          1.0419957820        4.0128325155       -1.2467603896
 C          0.7850359871        4.6319360590        0.0916739769
 H          1.1847750166        5.6126527549        0.3004965115
 H         -0.1705009278        4.4360813382        0.5554731515
 H          1.6426544926        4.5520774660       -1.9631794735
 H          0.2557534350        3.4248504669       -1.6925908534
 H          2.7904356373        3.7080307986        0.0547522804
 O          3.3334017351        1.6282675917       -1.5521228010
