  62
        -98.94837045
 C         -1.3127442859       -1.5603720116        0.2085898447
 C         -1.6637967409       -0.6101225832        1.1972295873
 C         -2.9118136762        0.1242030971        0.9686633675
 C         -3.6347917199       -0.1200203668       -0.1396182197
 C         -4.9552519400        0.5095835084       -0.4924654186
 C         -4.8363729605        1.8739432770       -1.1841653666
 C         -4.4054354051        3.0257870119       -0.2757018950
 H         -4.5768333773        3.9520825897       -0.8277247159
 H         -5.0437218760        3.0500330104        0.6083279574
 C         -2.9325207249        2.9750865530        0.1521621410
 H         -2.3729704212        2.3081364326       -0.5083712558
 H         -2.4803925069        3.9633138438        0.0387511344
 C         -2.6985504535        2.5403810464        1.5986371013
 H         -1.6173979330        2.4921683937        1.7546186379
 H         -3.1053766953        3.2924954568        2.2790552931
 C         -3.3023913515        1.1771347804        1.9610788206
 H         -2.9105831229        0.8780402219        2.9366035294
 H         -4.3876372258        1.2547258362        2.0283055206
 H         -4.1320465095        1.7853969680       -2.0147560987
 H         -5.8167394313        2.1147624537       -1.6020266907
 H         -5.4536463862       -0.1804469219       -1.1768952098
 H         -5.5643691648        0.6087630180        0.4065841545
 O         -3.2467394996       -1.0175678355       -1.0840244975
 C         -2.0639342613       -1.7327532705       -0.9533921364
 O         -1.8084670388       -2.4788182323       -1.9179738318
 O         -0.9684337114       -0.3933941837        2.2268141745
 C         -0.0293710870       -2.3515732057        0.3768363100
 C          0.9867083085       -1.9363347620       -0.6595584228
 C          1.8319380986       -2.8259550733       -1.3106557517
 C          2.7636034673       -2.3620885470       -2.2238279215
 C          2.8961506372       -1.0100522085       -2.4839769340
 C          2.0587722849       -0.1114952919       -1.8326262169
 C          1.1098450745       -0.5827808611       -0.9408020149
 H          0.4448912405        0.1220610274       -0.4667564415
 N          2.1571437654        1.2713752548       -2.0481901046
 S          1.9199018203        2.3097912113       -0.7552111905
 O          0.5167849398        2.4233264257       -0.4526296861
 O          2.5771123423        3.5349175495       -1.1611289936
 C          2.8208130505        1.5662118458        0.5936237696
 C          4.2003283197        1.5843657395        0.5074274456
 C          4.9465296118        0.9762270626        1.5023903281
 C          4.3030927785        0.3562163699        2.5632363139
 C          2.9197097357        0.3522100248        2.6387604161
 C          2.1661856484        0.9620087576        1.6469019963
 H          1.0878616995        0.9604615592        1.6896474248
 H          2.4102436762       -0.1263018469        3.4601399294
 H          4.8816729988       -0.1236737255        3.3367756177
 H          6.0231163718        0.9840101423        1.4475010804
 H          4.6623167708        2.0876830087       -0.3263810583
 H          2.9322118808        1.5595413492       -2.6268257999
 H          3.6309487624       -0.6515566835       -3.1882732831
 H          3.4057805008       -3.0645941902       -2.7328163971
 H          1.7561574400       -3.8819158404       -1.1099216916
 H          0.3662270555       -2.0526060818        1.3602349174
 C         -0.3050272693       -3.8400035067        0.3972061418
 C          0.5647711591       -4.7580310432        1.2017194793
 C         -0.8312021780       -4.4594854823        1.6563521535
 H         -1.5801642398       -5.2328984435        1.5761449570
 H         -0.9654404938       -3.8106027221        2.5096393866
 H          0.7743391975       -5.7425390084        0.8115180130
 H          1.3808585171       -4.3175584159        1.7541469268
 H         -0.7052105180       -4.2021256328       -0.5427604782
