  62
        -98.94482713
 C         -1.9244637431       -0.2692491968        0.0234428938
 C         -2.9727767346       -0.5705445504        0.9289997408
 C         -4.2110262440        0.2007864563        0.7645829085
 C         -4.2694034231        1.1546608119       -0.1826246835
 C         -5.4811841448        1.9853090054       -0.4885354778
 C         -6.3481389032        1.3272537052       -1.5711869454
 C         -6.6477929214       -0.1489265334       -1.3102668880
 H         -7.2900244610       -0.4982641295       -2.1216268298
 H         -5.7169050273       -0.7173775095       -1.3697157347
 C         -7.3275437909       -0.4305994102        0.0369725587
 H         -8.1471251607       -1.1339396652       -0.1247729197
 H         -7.7629744773        0.4881694822        0.4315977632
 C         -6.4103022883       -1.0507705832        1.0926037281
 H         -5.9004181549       -1.9198188203        0.6693838854
 H         -7.0335341456       -1.4066478117        1.9172783815
 C         -5.3523527634       -0.1145159742        1.6900972250
 H         -5.8289117590        0.8030775835        2.0410670884
 H         -4.9079842410       -0.6216699443        2.5514497042
 H         -7.2846487971        1.8827104938       -1.6477514022
 H         -5.8267523781        1.4070713515       -2.5279213932
 H         -6.0608309458        2.1218626420        0.4223860646
 H         -5.1477535070        2.9612353216       -0.8456174140
 O         -3.2318899383        1.4414355315       -1.0083131812
 C         -2.0377628382        0.7376204817       -0.9352566305
 O         -1.1845754724        1.1009795168       -1.7672131685
 H          1.3474575718        0.2713163553       -1.2334019391
 C          1.3733761069        0.4778238854       -0.1751992509
 C          0.4428885539       -0.1119784949        0.6660973834
 C          0.4854862549        0.1930285836        2.0237148174
 C          1.4348230475        1.0640644747        2.5248278875
 C          2.3604873505        1.6539763211        1.6810293215
 C          2.3190126589        1.3626025487        0.3249612732
 N          3.2714993024        1.9517862045       -0.5370553412
 S          4.8537885022        1.4628893598       -0.2797687464
 O          5.3243749065        2.0290834355        0.9585559277
 O          5.5816794818        1.8343182750       -1.4718231686
 C          4.7453454545       -0.3118963875       -0.1408170682
 C          4.5369370241       -0.8809621591        1.0993945473
 C          4.3565272106       -2.2522410150        1.1836353923
 C          4.3868755680       -3.0258540445        0.0337778086
 C          4.6021534344       -2.4392065201       -1.2039143964
 C          4.7757783269       -1.0679651188       -1.2956221661
 H          4.9478730151       -0.5724917769       -2.2378536156
 H          4.6302497420       -3.0450059728       -2.0954487491
 H          4.2427709104       -4.0927197809        0.1016923015
 H          4.1885489231       -2.7106041052        2.1449744579
 H          4.5247562834       -0.2464647470        1.9701382338
 H          3.0358989713        1.8373202160       -1.5130826947
 H          3.1168758730        2.3270709611        2.0514899054
 H          1.4555175061        1.2877986694        3.5806973125
 H         -0.2436872939       -0.2595822316        2.6811568863
 C         -0.6244974836       -1.0456720740        0.1540282919
 H         -0.8163660570       -1.7981345933        0.9307310847
 C         -0.2428866122       -1.7531635015       -1.1295379574
 C          0.8577815162       -2.7703555501       -1.1000928956
 C         -0.5625881688       -3.2076196183       -1.2912456332
 H         -0.8678999844       -3.5615658507       -2.2645752627
 H         -1.0602213208       -3.7041305274       -0.4713233255
 H          1.3282613911       -2.9635539141       -0.1480576034
 H          1.5322910049       -2.8253257189       -1.9405957788
 H         -0.3319977824       -1.1261306739       -2.0084520058
 O         -2.8755374188       -1.4446810533        1.8307654350
