  62
        -98.93500609
 C         -1.9611331163       -0.6738132650       -0.2850012595
 C         -3.1218188387       -1.1983452337        0.3366349074
 C         -4.4065811321       -0.5289076288        0.0558677984
 C         -4.4065789983        0.5563255940       -0.7395754712
 C         -5.5708678886        1.4255487983       -1.1341803371
 C         -6.0154144160        2.3687570864       -0.0048584197
 C         -6.1006165129        1.7231975904        1.3757014822
 H         -5.1258552799        1.3075496687        1.6375158272
 H         -6.3196060933        2.5138064967        2.0983093827
 C         -7.1706004117        0.6442515728        1.5251399565
 H         -7.1808695773        0.3416326305        2.5753903085
 H         -8.1478044976        1.0746175948        1.2948290326
 C         -6.9788490744       -0.6116170951        0.6721209110
 H         -7.2729866748       -0.4347942141       -0.3590268096
 H         -7.6583634880       -1.3755280259        1.0612836259
 C         -5.5765058149       -1.2095519898        0.7248206535
 H         -5.6129348107       -2.2196254458        0.2985487591
 H         -5.2856856638       -1.3509222043        1.7719551832
 H         -6.9847606588        2.7932633655       -0.2717193125
 H         -5.2934655317        3.1870396843        0.0547554404
 H         -5.2373959090        2.0304797308       -1.9804416793
 H         -6.3987780442        0.8100552044       -1.4735945782
 O         -3.2610650418        1.0515945316       -1.2855568360
 C         -2.0200580434        0.4668128812       -1.0868687300
 O         -1.0926435845        1.0542337333       -1.6737449571
 O         -3.0929107523       -2.1951005989        1.1075456727
 C         -0.6433464909       -1.3712921211        0.0064111115
 C          0.3922099213       -0.3674251523        0.4411810989
 C          0.3713537276        0.1123219246        1.7470361035
 C          1.2901524658        1.0551482127        2.1696030176
 C          2.2438158206        1.5454915422        1.2954010504
 C          2.2688912963        1.0770214465       -0.0114867705
 C          1.3598231285        0.1134295589       -0.4272570679
 H          1.3783489859       -0.2311626256       -1.4493182743
 N          3.2267581268        1.5825786771       -0.9098714469
 S          4.8340045397        1.5242302421       -0.4542331190
 O          5.0928233328        2.5344785710        0.5405846880
 O          5.5872417080        1.6321959051       -1.6831758543
 C          5.0288106795       -0.0986522387        0.2584966131
 C          5.0919626330       -1.1803357118       -0.5977940994
 C          5.1635963357       -2.4559969485       -0.0628225325
 C          5.1605124957       -2.6276697918        1.3132675771
 C          5.0974967804       -1.5315771765        2.1593431923
 C          5.0294334395       -0.2525929264        1.6298007783
 H          4.9836232537        0.6252844384        2.2526039879
 H          5.0974224528       -1.6683021955        3.2287103911
 H          5.2095450871       -3.6222229043        1.7278911776
 H          5.2166452839       -3.3104349809       -0.7184281978
 H          5.0983311290       -1.0049310288       -1.6617130180
 H          3.1040584099        1.2526488501       -1.8557248842
 H          2.9600750921        2.2913536780        1.6003110438
 H          1.2602890792        1.4178828861        3.1858997302
 H         -0.3827144766       -0.2584293291        2.4276016223
 H         -0.8694663418       -2.0215627094        0.8667889506
 C         -0.1493650801       -2.2857648821       -1.1050610208
 C         -1.1175447484       -3.1097290204       -1.8986894533
 C         -0.3584676381       -2.0010080331       -2.5609832373
 H          0.4316997792       -2.2641171816       -3.2495892798
 H         -0.8886937038       -1.1016010483       -2.8321164106
 H         -0.8559638369       -4.1297231723       -2.1363522415
 H         -2.1700130224       -2.9613980337       -1.7051346889
 H          0.7867331163       -2.7666229536       -0.8370600609
