  62
        -98.93580382
 C         -1.7576664893       -0.7418468243        0.7262803329
 C         -2.7329088986       -1.1641028897       -0.2096047449
 C         -4.0772928869       -0.5825587710       -0.0498368490
 C         -4.3084864813        0.2884458756        0.9478341949
 C         -5.5960199299        1.0254056411        1.1848265364
 C         -5.7234197084        2.1969327927        0.1900952723
 C         -6.8724500424        2.0550588769       -0.8085650693
 H         -6.7298365185        2.8148079470       -1.5800198845
 H         -7.8133019023        2.2751821433       -0.2997242051
 C         -7.0112680537        0.6842664623       -1.4778432967
 H         -7.6776654750        0.8147988924       -2.3331726889
 H         -7.5108665043       -0.0068855024       -0.7974288336
 C         -5.7070758922        0.0383677897       -1.9630111469
 H         -4.9472924901        0.7979571172       -2.1483983463
 H         -5.9063738823       -0.4514183168       -2.9182735203
 C         -5.1339954075       -1.0355753837       -1.0194184502
 H         -4.6466643073       -1.8064840492       -1.6232985276
 H         -5.9504773483       -1.5138620098       -0.4716882238
 H         -4.7788214961        2.2912925817       -0.3500241915
 H         -5.8625490034        3.1284425759        0.7410555112
 H         -6.4358280583        0.3418859048        1.0812556328
 H         -5.5728264304        1.3979404764        2.2091867681
 O         -3.3486040707        0.6642691420        1.8331927159
 C         -2.0613147509        0.1647980155        1.7457850275
 O         -1.2894554849        0.5898432534        2.6298340845
 H          1.4252450854        0.7978324730        0.9843997692
 C          1.3090818687        0.5128993085       -0.0510791209
 C          0.4462078252       -0.5191428477       -0.3949913581
 C          0.2918573861       -0.8411684601       -1.7398102110
 C          0.9842358777       -0.1412356786       -2.7105390019
 C          1.8558069101        0.8759108419       -2.3629636611
 C          2.0153699390        1.2079031718       -1.0233033845
 N          2.8928796975        2.2387222711       -0.6383046909
 S          4.0285092467        1.9164356513        0.5486702950
 O          3.3939120255        1.8192714672        1.8375765847
 O          5.0196152752        2.9592697201        0.3987122104
 C          4.7176141812        0.3429903526        0.0696610597
 C          4.2270533003       -0.8174400039        0.6326538280
 C          4.7138562724       -2.0357723734        0.1857580260
 C          5.6764943024       -2.0716795778       -0.8109572767
 C          6.1643744632       -0.8965530429       -1.3622798725
 C          5.6778706163        0.3237849369       -0.9232674627
 H          6.0353671747        1.2607725081       -1.3186641397
 H          6.9170889465       -0.9283709279       -2.1333517703
 H          6.0497638149       -3.0223797915       -1.1572245462
 H          4.3366561098       -2.9505874579        0.6143147811
 H          3.4827129070       -0.7451738834        1.4092123014
 H          3.3292360912        2.7136924205       -1.4159447038
 H          2.3998068789        1.4183246873       -3.1214898719
 H          0.8488050742       -0.3950793114       -3.7508400448
 H         -0.4003520459       -1.6191400930       -2.0188848528
 C         -0.3178238876       -1.2350727762        0.6935441037
 H          0.1149993426       -0.9307780770        1.6564154326
 C         -0.2131982618       -2.7425226356        0.5779652380
 C          1.0385330608       -3.4198639032        1.0442325787
 C         -0.2309401397       -3.5696917097        1.8265883316
 H         -0.7435477700       -4.5196934127        1.8076103156
 H         -0.3145374113       -3.0489480700        2.7700434545
 H          1.8141274866       -2.7962194289        1.4624119207
 H          1.4025698684       -4.2695208109        0.4878332312
 H         -0.7173863053       -3.1489582143       -0.2878769396
 O         -2.5177822991       -1.9887049500       -1.1355838099
