  62
        -98.94106781
 C         -2.0246559528       -0.3808832507        0.0490396978
 C         -3.1175252414       -1.1146701540        0.5809399857
 C         -4.3381064595       -0.3516782165        0.8708990043
 C         -4.3396840380        0.9795034494        0.6787893237
 C         -5.5269951408        1.8746269119        0.8811620616
 C         -6.3379256244        2.0201778019       -0.4142212756
 C         -6.6614014095        0.6893665742       -1.0936416263
 H         -7.2609340870        0.9135699409       -1.9785762717
 H         -5.7325963079        0.2326147150       -1.4432739329
 C         -7.4147188748       -0.3107422604       -0.2053737374
 H         -7.8632746674        0.2106283449        0.6409987463
 H         -8.2300063197       -0.7486525729       -0.7851545165
 C         -6.5608912810       -1.4711422976        0.3094790126
 H         -6.0380529354       -1.9404545158       -0.5278779131
 H         -7.2304905576       -2.2216227082        0.7378871096
 C         -5.5272275836       -1.1133845049        1.3848672561
 H         -6.0139377218       -0.5669830969        2.1952946234
 H         -5.1312594816       -2.0491703488        1.7902098943
 H         -7.2651360946        2.5479588413       -0.1836302967
 H         -5.7643872568        2.6318577270       -1.1147179105
 H         -6.1541942045        1.4655797034        1.6709357266
 H         -5.1677064035        2.8585784033        1.1874728691
 O         -3.2571021214        1.6590798888        0.2275284534
 C         -2.0762796859        1.0052703553       -0.1108288580
 O         -1.1880653616        1.7709307620       -0.5270467519
 H          1.1550000794        0.4243140950       -1.4322045184
 C          1.3213871138        0.2740119335       -0.3770553213
 C          0.4358921983       -0.5017567938        0.3544321590
 C          0.6561683994       -0.6577503960        1.7196047733
 C          1.7284081399       -0.0424909197        2.3381571657
 C          2.6012905808        0.7445962252        1.6083258661
 C          2.3883526208        0.9080706563        0.2458918199
 N          3.2675338828        1.7114760968       -0.4977667609
 S          4.9099827092        1.5188007170       -0.2668252984
 O          5.3234079130        2.2093627758        0.9296180917
 O          5.5233322164        1.9663245436       -1.4975963278
 C          5.1368554283       -0.2388486406       -0.0580548752
 C          4.8075701058       -1.0640555353       -1.1153831566
 C          4.9345840145       -2.4346176389       -0.9612091222
 C          5.3839563999       -2.9547867774        0.2431758868
 C          5.7142840002       -2.1132325820        1.2936101715
 C          5.5884749602       -0.7410526045        1.1449633776
 H          5.8336786469       -0.0513750699        1.9360104877
 H          6.0656373671       -2.5204722530        2.2279137148
 H          5.4780002000       -4.0226897371        0.3618195921
 H          4.6802742171       -3.0917260794       -1.7773554818
 H          4.4680126566       -0.6257103984       -2.0400690177
 H          3.0266590221        1.7956989898       -1.4735680666
 H          3.4312290913        1.2494285257        2.0755923379
 H          1.8841093487       -0.1705047833        3.3985786683
 H         -0.0329753745       -1.2615027513        2.2938477080
 C         -0.7624097383       -1.1616475379       -0.2763333164
 H         -0.9144410269       -2.1337723171        0.2200275009
 C         -0.5671323996       -1.4609626245       -1.7554849686
 C         -1.7432368100       -1.7828901245       -2.6269254300
 C         -0.9724328001       -0.5173260060       -2.8463238813
 H         -0.3424499566       -0.4491468716       -3.7217386802
 H         -1.4254399744        0.4201228241       -2.5643370583
 H         -1.6494706059       -2.5781088101       -3.3509077734
 H         -2.7248221761       -1.7108349383       -2.1813741553
 H          0.3341397882       -2.0413701761       -1.9289046208
 O         -3.0728203957       -2.3538991897        0.8030340332
