  62
        -98.93860304
 C         -0.0605971519       -1.8088432962       -1.0811368709
 C         -1.1982189345       -2.3149418178       -0.4029936468
 C         -2.4523299504       -1.5691241916       -0.5635699620
 C         -2.4616123340       -0.4688911497       -1.3361738800
 C         -3.6229343271        0.4693948156       -1.5074222008
 C         -3.7171667654        1.4066917077       -0.2854987368
 C         -4.9706138133        1.2091591277        0.5683061536
 H         -4.8137781368        1.7548389571        1.5015476171
 H         -5.8239376865        1.6625006581        0.0584268262
 C         -5.3370279792       -0.2418823240        0.8948124205
 H         -6.0624457556       -0.2105927008        1.7106395043
 H         -5.8471183854       -0.6917627891        0.0414122447
 C         -4.1712832956       -1.1511349034        1.3059795488
 H         -4.5099268398       -1.7946718842        2.1208888320
 H         -3.3384557061       -0.5604715573        1.6920377114
 C         -3.6554255370       -2.0715323687        0.1829672037
 H         -4.4655058565       -2.2869129100       -0.5194885403
 H         -3.3381658027       -3.0209640284        0.6242846125
 H         -3.6976821433        2.4465269953       -0.6192132877
 H         -2.8296144851        1.2579810723        0.3357467014
 H         -3.4469899184        1.0463067686       -2.4159475461
 H         -4.5432520445       -0.0979828328       -1.6269464414
 O         -1.3651767282       -0.0336526234       -2.0031652430
 C         -0.1263374804       -0.6551010539       -1.8624269317
 O          0.7838739152       -0.0852417329       -2.4889752780
 O         -1.1586787196       -3.3530578782        0.3137174963
 C          1.2579104995       -2.4986842355       -0.7717427234
 C          1.7510365928       -1.9850557988        0.5593024377
 C          2.2474293553       -2.8336737418        1.5407567521
 C          2.6252075798       -2.3316959444        2.7745531949
 C          2.4843068795       -0.9860448456        3.0636868228
 C          1.9874660107       -0.1301818604        2.0871205106
 C          1.6610117602       -0.6288136456        0.8368192155
 H          1.2873692945        0.0442454978        0.0810100498
 N          1.8026894794        1.2389824108        2.3280792764
 S          0.4900323265        2.0101693148        1.6227063709
 O          0.2787828867        3.1812671847        2.4508195383
 O         -0.6480713309        1.1281798211        1.4962545020
 C          1.0682877359        2.5435495694        0.0274420149
 C          0.1443161847        2.7198242028       -0.9817853298
 C          0.5778119910        3.1692386590       -2.2180392872
 C          1.9214284180        3.4374507778       -2.4208690136
 C          2.8363442451        3.2628746664       -1.3943785247
 C          2.4093735905        2.8151870534       -0.1551434242
 H          3.0954733429        2.6593211169        0.6609128395
 H          3.8823682753        3.4671491505       -1.5578763559
 H          2.2574041855        3.7774054786       -3.3877709539
 H         -0.1333365420        3.2931590255       -3.0187840970
 H         -0.8900373402        2.4797159889       -0.7923986259
 H          1.9509869876        1.5370512223        3.2812257094
 H          2.7438768985       -0.6013019047        4.0380925409
 H          3.0089118205       -3.0000493426        3.5303500906
 H          2.3110491894       -3.8936098730        1.3436097294
 H          1.0108373322       -3.5646200136       -0.6407029681
 C          2.2997074818       -2.3981270248       -1.8730721188
 C          3.4741226738       -1.4737220726       -1.8004912554
 C          3.6779167695       -2.9504767136       -1.6574274278
 H          4.1484332943       -3.4894725824       -2.4655742474
 H          3.9163589977       -3.3281599696       -0.6748018917
 H          3.7819398298       -0.9864986704       -2.7123362308
 H          3.5775688134       -0.8550091497       -0.9227121464
 H          1.8635837769       -2.5433875122       -2.8553865444
