  62
        -98.94375119
 C         -1.2446697012       -0.9050491015        0.2022907545
 C         -1.6970235955        0.2177089939        0.9402956599
 C         -2.7185337557        1.0481981390        0.2947664847
 C         -3.0952306880        0.7766224968       -0.9673111586
 C         -4.1030840306        1.5470723241       -1.7763389718
 C         -5.5593410619        1.1409867137       -1.5104301937
 C         -6.1264971025        1.5946235938       -0.1645767999
 H         -5.9576217102        2.6651419970       -0.0438317254
 H         -7.2061321378        1.4369750911       -0.2028733853
 C         -5.5605195545        0.8418287515        1.0475784007
 H         -6.3784975743        0.5521028371        1.7108551533
 H         -5.0799242665       -0.0796268660        0.7105816333
 C         -4.5622188272        1.6439886986        1.8824928397
 H         -5.0663452875        2.5025942059        2.3312906196
 H         -4.2003026085        1.0045279237        2.6916112797
 C         -3.3447522191        2.1488635159        1.0964714048
 H         -2.5974583025        2.5073604251        1.8088855703
 H         -3.6305375518        2.9765963543        0.4472993182
 H         -6.1688227016        1.5794079903       -2.3039538556
 H         -5.6388163711        0.0544605796       -1.5925956757
 H         -3.9802336513        2.6150585203       -1.5922911457
 H         -3.8744120223        1.3489388046       -2.8259291303
 O         -2.5647352830       -0.2505620007       -1.6811835035
 C         -1.6360703613       -1.1196646465       -1.1200773338
 O         -1.2499667225       -2.0108917586       -1.8992571008
 O         -1.2593923838        0.5155671101        2.0841527658
 C         -0.2018149872       -1.7962643694        0.8505866526
 C          0.9935166712       -1.9507338744       -0.0566904200
 C          1.6231303844       -3.1588744430       -0.3243569570
 C          2.7373720162       -3.1973462821       -1.1457043959
 C          3.2592613469       -2.0413525668       -1.6963127928
 C          2.6327445994       -0.8270236856       -1.4373834767
 C          1.5118533575       -0.7950703244       -0.6263553648
 H          1.0110603923        0.1464457631       -0.4613631985
 N          3.1177425368        0.3726376087       -1.9771734780
 S          2.9412748083        1.8008867155       -1.1314346925
 O          1.5817222306        2.2756746251       -1.2136633312
 O          3.9466946442        2.6740077777       -1.6996536631
 C          3.3755990522        1.4015517773        0.5528616598
 C          4.6853135385        1.0385026686        0.8026139754
 C          5.0511972109        0.6841485487        2.0903472365
 C          4.1040443166        0.6932905425        3.1034600315
 C          2.7958127651        1.0661667332        2.8388562654
 C          2.4250712888        1.4258434910        1.5524301558
 H          1.4114327762        1.7150598286        1.3209809385
 H          2.0519437660        1.0734652851        3.6198067614
 H          4.3857404788        0.4104919654        4.1054344897
 H          6.0694335750        0.3989624201        2.2998991282
 H          5.3950693652        1.0532278172       -0.0083722020
 H          4.0053501702        0.3085721257       -2.4521821358
 H          4.1299718611       -2.0753268818       -2.3327721393
 H          3.2112564379       -4.1441918476       -1.3554430849
 H          1.2322170565       -4.0733544052        0.0900727652
 H          0.1328672377       -1.2151596137        1.7279082681
 C         -0.7379773431       -3.1142243957        1.3903394435
 C         -2.1997198582       -3.3066992431        1.6605935490
 C         -1.5383050484       -4.0601218393        0.5477547868
 H         -1.3774873318       -5.1208483218        0.6745249724
 H         -1.7460532637       -3.7657291382       -0.4686361286
 H         -2.4913265792       -3.8456984322        2.5496588412
 H         -2.8680541976       -2.4980875508        1.4008032885
 H         -0.0604606492       -3.5630112563        2.1101268720
