  62
        -98.93588734
 C         -2.3758481962       -0.7246542961        0.2254562993
 C         -2.4897795144        0.6894095203        0.2522729384
 C         -3.7094788898        1.2616695859       -0.3313124381
 C         -4.6290200278        0.4365530333       -0.8636844355
 C         -5.9425603728        0.8729296546       -1.4438116597
 C         -7.0474140244        0.8733200561       -0.3780862997
 C         -6.6590456009        1.5928398375        0.9135217388
 H         -7.5238282267        1.5560803284        1.5794928254
 H         -5.8536078486        1.0393712871        1.4018314407
 C         -6.2238916293        3.0523199840        0.7210390061
 H         -6.5641379928        3.4159113267       -0.2491482426
 H         -6.7063666400        3.6654901695        1.4850374937
 C         -4.7174642880        3.2872394643        0.8488553745
 H         -4.5448209786        4.3648551785        0.9145036458
 H         -4.3533255055        2.8416195463        1.7782056061
 C         -3.8586005687        2.7568556420       -0.3063090901
 H         -4.2550668321        3.1202652659       -1.2567511895
 H         -2.8476020656        3.1560995078       -0.1806105695
 H         -7.9371785953        1.3407463092       -0.8035550866
 H         -7.2912422290       -0.1627066052       -0.1323372009
 H         -5.8319086779        1.8686463512       -1.8686949920
 H         -6.2159537795        0.1761417045       -2.2378019048
 O         -4.4811678000       -0.9101863138       -0.8886216407
 C         -3.3601488083       -1.5317919615       -0.3477499740
 O         -3.3838221805       -2.7708370386       -0.4510155586
 O         -1.6087713925        1.4408032718        0.7540788062
 C         -1.1217180406       -1.3149034671        0.8442723027
 C         -0.0331100069       -1.4885880946       -0.1847313817
 C         -0.2779237616       -2.1250717660       -1.3978728356
 C          0.7361754274       -2.2735042966       -2.3260163322
 C          2.0063652874       -1.7903817927       -2.0661633085
 C          2.2639794604       -1.1587465017       -0.8546581218
 C          1.2436047582       -1.0118912052        0.0754216899
 H          1.4496051179       -0.4991714089        1.0029368540
 N          3.5594786052       -0.7062259754       -0.5526961778
 S          3.7586601083        0.7013552894        0.3592214375
 O          3.4984243183        0.3968330725        1.7434013964
 O          2.9977300671        1.7842793699       -0.2220705662
 C          5.5049790040        0.9732752066        0.1235860451
 C          6.3968368773        0.2307076058        0.8743616880
 C          7.7556755493        0.4148121439        0.6748303360
 C          8.1978314500        1.3326560510       -0.2665509703
 C          7.2910163866        2.0723829031       -1.0105323256
 C          5.9303113698        1.8920519309       -0.8169926336
 H          5.1885210421        2.4503386863       -1.3654428890
 H          7.6376042897        2.7877796245       -1.7388032400
 H          9.2560033715        1.4746787344       -0.4192927675
 H          8.4638684691       -0.1561270480        1.2533156082
 H          6.0066316847       -0.4634012310        1.6001859390
 H          4.1639923771       -0.6983095551       -1.3635457601
 H          2.7945496864       -1.9038817021       -2.7949370209
 H          0.5335621519       -2.7669834632       -3.2647295226
 H         -1.2679357420       -2.5044563065       -1.6010580198
 H         -0.7724626923       -0.5475961120        1.5550339849
 C         -1.3821862927       -2.5843614209        1.6443124985
 C         -0.9086881391       -3.9400936505        1.2242877087
 C         -0.2539887083       -3.2468262823        2.3787158364
 H         -0.4327834080       -3.6155412848        3.3774115437
 H          0.7371940358       -2.8449940545        2.2267056994
 H         -1.5606887390       -4.7773860939        1.4199403613
 H         -0.3585303001       -4.0245447448        0.3008323188
 H         -2.3395967055       -2.5486971656        2.1545678589
