  62
        -98.92908945
 C          2.0573429525        1.1716799187        0.3278808855
 C          2.7670910107        0.4137189324        1.2925892821
 C          4.1166362574       -0.0455467728        0.9252196342
 C          4.5933701976        0.2538126114       -0.2952478746
 C          5.9118146580       -0.1539085564       -0.8924878209
 C          5.7643276960       -1.4529476952       -1.7026871853
 C          5.9261228712       -2.7391132281       -0.8933712067
 H          5.6722056773       -3.5722459047       -1.5528725701
 H          6.9740126704       -2.8547327125       -0.6085008762
 C          5.0636837805       -2.8308807108        0.3681683475
 H          4.0558555161       -2.4713278129        0.1514630997
 H          4.9780104905       -3.8850668781        0.6392807060
 C          5.6507572414       -2.0575984757        1.5584272683
 H          5.6966684392       -2.7149557351        2.4293375497
 H          6.6786024667       -1.7771779420        1.3292139489
 C          4.8585202883       -0.8135099184        1.9852263174
 H          5.5309229799       -0.1250047414        2.5082285169
 H          4.0883781807       -1.1038256498        2.7068136557
 H          4.7814406145       -1.4400703289       -2.1809766775
 H          6.5135003870       -1.4575382084       -2.4969855328
 H          6.6705034709       -0.2543177943       -0.1220476207
 H          6.2050956932        0.6481363268       -1.5730297552
 O          3.8711667104        0.9598319692       -1.2042819893
 C          2.5961886143        1.4357665771       -0.9327521115
 O          2.0860096754        2.0538796413       -1.8815676092
 O          2.2884617260        0.1274481512        2.4251773803
 C          0.6651812891        1.6510633661        0.7217999913
 C         -0.3744359665        1.0073795329       -0.1615192262
 C         -0.7896694303        1.4869140746       -1.3986888998
 C         -1.7245050935        0.7909823990       -2.1468254901
 C         -2.2683049102       -0.3945380503       -1.6891269867
 C         -1.8591990355       -0.8891081421       -0.4575182225
 C         -0.9292380988       -0.1856674757        0.2934206238
 H         -0.6097152539       -0.5834709044        1.2481672009
 N         -2.4077261973       -2.0902035320        0.0244112897
 S         -4.0686745322       -2.2761998915       -0.0766481569
 O         -4.4144896903       -3.1876216768        0.9913127002
 O         -4.4293838389       -2.6995773666       -1.4066927867
 C         -4.7320334988       -0.6509058524        0.2429999530
 C         -4.4670978529       -0.0717788010        1.4684394573
 C         -4.9325416783        1.2083546663        1.7197487379
 C         -5.6513122878        1.8847138721        0.7456593208
 C         -5.9148572045        1.2871630085       -0.4768371549
 C         -5.4495126670        0.0074424178       -0.7345103368
 H         -5.6288978194       -0.4925320629       -1.6723257144
 H         -6.4759629893        1.8145938110       -1.2312524189
 H         -6.0080582031        2.8833373900        0.9424071727
 H         -4.7289714308        1.6746970579        2.6702837140
 H         -3.9105725293       -0.6265829200        2.2067980895
 H         -2.0617324133       -2.3642041017        0.9321050727
 H         -2.9872803843       -0.9504432795       -2.2687056415
 H         -2.0285353494        1.1789039272       -3.1071252745
 H         -0.3566407562        2.3834099220       -1.8040905918
 H          0.5249881600        1.2136979964        1.7225210705
 C          0.6056420036        3.1570333290        0.9483912484
 C          0.6894137993        4.2195141336       -0.1046656096
 C         -0.5970203025        3.9937880691        0.6298133676
 H         -0.9094573560        4.7339751559        1.3511613945
 H         -1.4096458031        3.5224956214        0.0995386446
 H          1.2652461358        5.1031409892        0.1334686746
 H          0.7824415890        3.9215807437       -1.1349945704
 H          1.1193620379        3.4020588469        1.8751902882
