  62
        -98.94293819
 C         -1.6484215204       -0.7410414844        0.8392551932
 C         -2.3687394544       -0.0250604176       -0.1430499977
 C         -2.4593035370        1.4367091174        0.0399915634
 C         -1.7963325115        2.0080825489        1.0595354852
 C         -1.6712370510        3.4722198330        1.3848820584
 C         -0.4497487152        4.0894444581        0.6804260022
 C         -0.7349356848        4.6752703463       -0.6998456435
 H         -1.3825340186        5.5493977183       -0.5985569104
 H          0.2189160036        5.0131410459       -1.1120260927
 C         -1.3693349167        3.6914318863       -1.6850161833
 H         -1.1845646881        4.0607765746       -2.6961580362
 H         -0.8659676863        2.7253885968       -1.6006814257
 C         -2.8823219872        3.5252502255       -1.4820677233
 H         -3.2439095415        4.3045213003       -0.8112350968
 H         -3.3937073250        3.6762249017       -2.4356007509
 C         -3.3206231590        2.1507723970       -0.9663786339
 H         -4.3319401000        2.2342685673       -0.5513723116
 H         -3.3883661106        1.4561370137       -1.8101916680
 H          0.3163464779        3.3158799581        0.5782513040
 H         -0.0401277272        4.8813125677        1.3114341609
 H         -2.5816537309        4.0057998617        1.1283436497
 H         -1.5219482913        3.5354777575        2.4650263424
 O         -1.0658974352        1.2838472959        1.9538561755
 C         -0.9732420322       -0.0928899122        1.8712791578
 O         -0.2707015879       -0.6176750819        2.7595586487
 H          0.8202925000       -1.0734203261        0.0916538040
 C          0.5137904643       -1.7361847067       -0.7043472067
 C         -0.6483378667       -2.4826216888       -0.5513985545
 C         -1.0168013641       -3.3535384171       -1.5667450176
 C         -0.2574866254       -3.4338131003       -2.7226026546
 C          0.8584713610       -2.6367042428       -2.8990998236
 C          1.2445822448       -1.7741407557       -1.8782052503
 N          2.3667555915       -0.9431894223       -2.0051950590
 S          2.3876314739        0.5482441331       -1.2423196699
 O          1.0752362994        1.1435261175       -1.1600952968
 O          3.3788570164        1.3070081969       -1.9787980469
 C          3.0365754623        0.1957203953        0.3763429012
 C          4.1303817831       -0.6421941966        0.4737036226
 C          4.6631273270       -0.9038104474        1.7250826680
 C          4.0990388302       -0.3242834347        2.8520311226
 C          3.0062266381        0.5198419851        2.7373463567
 C          2.4703160763        0.7854113312        1.4874622865
 H          1.6079978937        1.4223687061        1.3650109231
 H          2.5552395675        0.9628665171        3.6105339481
 H          4.5106829011       -0.5322768151        3.8270684186
 H          5.5131140772       -1.5603055935        1.8197004469
 H          4.5391435647       -1.0740427882       -0.4244844550
 H          2.7792240364       -0.9103687160       -2.9257886405
 H          1.4239979752       -2.6733890545       -3.8176760197
 H         -0.5555075927       -4.1097240595       -3.5098450488
 H         -1.9056279937       -3.9540083172       -1.4638294835
 C         -1.4511357574       -2.2428963337        0.7051055678
 H         -0.8410204383       -2.5471228116        1.5680280047
 C         -2.7691409719       -2.9833127128        0.7469538212
 C         -2.8112171221       -4.4120795522        1.1968562843
 C         -3.3626769652       -3.3325158647        2.0775058774
 H         -4.4329439585       -3.2595111503        2.1989341665
 H         -2.8036071954       -3.0537007291        2.9589541468
 H         -3.5060480138       -5.0838762804        0.7160835145
 H         -1.8784486226       -4.8726824219        1.4849385138
 H         -3.4485858588       -2.6708151108       -0.0370233286
 O         -2.9194804901       -0.5764733359       -1.1332302572
