  62
        -98.93443208
 C         -2.5704149570       -0.8686241691       -0.0391991171
 C         -2.1399790364        0.1287643261       -0.9470380353
 C         -2.6092897925        1.5064146242       -0.6856945650
 C         -3.4306485283        1.7482089264        0.3516161433
 C         -4.1035479893        3.0196808705        0.8280562603
 C         -3.6918114357        4.3778131503        0.2674990791
 C         -2.2941411726        4.8402448609        0.6817640955
 H         -2.0436729252        5.7361461115        0.1100206504
 H         -2.3221359741        5.1161771432        1.7388688979
 C         -1.1783869822        3.8121363266        0.5091832059
 H         -1.3875873515        2.9321394723        1.1210495081
 H         -0.2522424598        4.2503476103        0.8905915967
 C         -0.9112481652        3.3592854246       -0.9245120786
 H         -0.6814962091        4.2254360910       -1.5492746235
 H         -0.0276525636        2.7141664896       -0.9031733888
 C         -2.0481349390        2.5663428261       -1.5890915454
 H         -2.8320462540        3.2262311568       -1.9533911351
 H         -1.6296830025        2.0428808633       -2.4542043833
 H         -3.7946009683        4.3824509234       -0.8136687195
 H         -4.4085885333        5.1061823144        0.6563386583
 H         -3.9864589350        3.0301085596        1.9163800693
 H         -5.1722842179        2.8748611219        0.6353984904
 O         -3.8533461762        0.7445367148        1.1768232829
 C         -3.4203691728       -0.5574592972        1.0238978599
 O         -3.8695540582       -1.3460696690        1.8813104676
 O         -1.4071177116       -0.0907743262       -1.9482005940
 C         -2.1445220414       -2.3243739639       -0.1118754465
 C         -0.8266970709       -2.5665199778        0.5889963294
 C         -0.6511169701       -3.7026537255        1.3713906700
 C          0.5601945447       -3.9511789369        1.9904520063
 C          1.6169059497       -3.0721280497        1.8426689170
 C          1.4483859284       -1.9244652387        1.0743510689
 C          0.2334572056       -1.6828306411        0.4487820519
 H          0.1260845476       -0.7983611515       -0.1589988833
 N          2.4913145429       -0.9928131839        0.9635854101
 S          2.6084322422        0.0008913218       -0.3953922526
 O          1.6899435831        1.0996322892       -0.2497046680
 O          2.5133377905       -0.7903293144       -1.6010139431
 C          4.2795018542        0.5906460441       -0.1888347925
 C          4.5055697350        1.6853571058        0.6235755586
 C          5.8067098086        2.1244088396        0.8107063594
 C          6.8549398759        1.4649104870        0.1862770174
 C          6.6129226177        0.3693517662       -0.6288206651
 C          5.3139378854       -0.0750969219       -0.8189631607
 H          5.0765580565       -0.9149437219       -1.4520864054
 H          7.4292083608       -0.1387643127       -1.1163886733
 H          7.8664818408        1.8090329628        0.3330852379
 H          5.9977235476        2.9780649639        1.4407896732
 H          3.6581030203        2.1706691007        1.0792632272
 H          3.3898426310       -1.3689977497        1.2328375540
 H          2.5629000658       -3.2630950030        2.3258907912
 H          0.6839626549       -4.8382954266        2.5926608351
 H         -1.4760009801       -4.3875518686        1.4992418891
 H         -2.9166346157       -2.8857393068        0.4338812089
 C         -2.0695194099       -2.8717648697       -1.5252914700
 C         -2.3271109061       -4.3276575970       -1.7658150516
 C         -3.3271589660       -3.3051477282       -2.2136621698
 H         -3.4304830102       -3.1029363532       -3.2689829702
 H         -4.2511050341       -3.2188353843       -1.6599796011
 H         -1.7389370811       -4.8346036066       -2.5152500233
 H         -2.5818275216       -4.9418083472       -0.9156084866
 H         -1.3128404429       -2.3862033670       -2.1285534659
