  62
        -98.94076504
 C          2.2840699480        0.9321380616       -0.2202898198
 C          3.6069004411        1.1949112664        0.2110055013
 C          4.6490490938        0.3174191582       -0.3372710321
 C          4.3025845061       -0.6505884131       -1.2053767885
 C          5.2525102340       -1.6493693493       -1.7992585356
 C          5.3317197512       -2.9183906493       -0.9390743800
 C          5.5571248197       -2.6428619162        0.5476295371
 H          4.6785835955       -2.1345283422        0.9519034520
 H          5.6274771259       -3.6099411977        1.0502510051
 C          6.8111972122       -1.8130684838        0.8564831132
 H          7.4883385403       -1.8339044078        0.0019604777
 H          7.3356113422       -2.2718627658        1.6972776610
 C          6.5314639838       -0.3603045689        1.2458446689
 H          5.7812792621       -0.3322156243        2.0401110977
 H          7.4528119531        0.0663574311        1.6508885121
 C          6.0639911903        0.5578718087        0.1093087837
 H          6.0896458550        1.5862888809        0.4810261379
 H          6.7527447541        0.4798707786       -0.7341083764
 H          6.1391471374       -3.5451338372       -1.3219405451
 H          4.3935657506       -3.4678976440       -1.0469542132
 H          4.8912525512       -1.9169200421       -2.7936520614
 H          6.2378763165       -1.1966503753       -1.8902588328
 O          3.0232188598       -0.8634284339       -1.6081982528
 C          1.9796460791       -0.0919374456       -1.1167398222
 O          0.8573758129       -0.4126620296       -1.5537971421
 H         -1.5479702963        1.3078551957       -0.0959759619
 C         -1.1413210772        0.7715210334        0.7436392848
 C          0.1933881601        0.9070988500        1.0896137021
 C          0.6789029288        0.1911922772        2.1819752297
 C         -0.1474440225       -0.6515923849        2.8978132658
 C         -1.4738507175       -0.8041859397        2.5330410550
 C         -1.9716829506       -0.0880551614        1.4514928749
 N         -3.3318688305       -0.1959844991        1.1002587920
 S         -3.7785167844       -0.3647704287       -0.5208073633
 O         -3.2162924997       -1.5780916879       -1.0727607989
 O         -3.5036185661        0.8610103387       -1.2239959427
 C         -5.5413917322       -0.5528491451       -0.3169089808
 C         -6.1048471880       -1.8136624437       -0.3635317036
 C         -7.4719053515       -1.9453308979       -0.1752953342
 C         -8.2476676467       -0.8200662443        0.0583499142
 C         -7.6681256950        0.4394422527        0.1010280922
 C         -6.3023440495        0.5776999365       -0.0877005410
 H         -5.8092247889        1.5354765625       -0.0716912924
 H         -8.2749568850        1.3123569942        0.2798729715
 H         -9.3110356208       -0.9249316467        0.2050347953
 H         -7.9253219021       -2.9228119682       -0.2117805248
 H         -5.4634659216       -2.6586120144       -0.5569139103
 H         -3.7966594532       -0.9165531234        1.6388477044
 H         -2.1190340350       -1.4720586234        3.0841039053
 H          0.2433173007       -1.2019443250        3.7406089820
 H          1.7194451982        0.3032602851        2.4557725083
 C          1.1536573492        1.7860652283        0.3274467497
 H          1.6293126152        2.4749268512        1.0412412838
 C          0.5046178296        2.5983726045       -0.7715835506
 C         -0.2225042282        3.8641962608       -0.4330631534
 C          1.0950325298        3.9239286311       -1.1442873451
 H          1.1087458633        4.2063970712       -2.1862805828
 H          1.9617861732        4.2536796309       -0.5901956034
 H         -1.1188072490        4.1029218292       -0.9853501799
 H         -0.2519596937        4.1583896937        0.6051703873
 H          0.1105383913        1.9837878807       -1.5740569526
 O          3.9003513111        2.1160424929        1.0195586648
