  62
        -98.93695645
 C         -1.2752423867       -1.4827844230        0.4734604291
 C         -1.6297856976       -0.4260920602        1.3461527918
 C         -2.9233796767        0.2135799470        1.0893554310
 C         -3.6995054919       -0.2329842576        0.0848639111
 C         -5.0749867472        0.2698521388       -0.2619013996
 C         -5.0837102720        1.5018666573       -1.1762582238
 C         -4.6370469792        2.8038790626       -0.5107466749
 H         -4.8892783688        3.6180985255       -1.1929801361
 H         -5.2073322989        2.9581451176        0.4058951590
 C         -3.1350417738        2.8679334065       -0.2012779094
 H         -2.6042024427        2.1058148122       -0.7772552767
 H         -2.7307992078        3.8313831684       -0.5206405560
 C         -2.7748238509        2.7015481830        1.2749886725
 H         -1.6834818317        2.7109837585        1.3471960110
 H         -3.1592025125        3.5508415501        1.8451048523
 C         -3.2948365083        1.4070695741        1.9153580062
 H         -4.3754397343        1.4621131986        2.0484898733
 H         -2.8249048617        1.2963118062        2.8957822697
 H         -4.4475319839        1.3002733458       -2.0412294954
 H         -6.1063385402        1.6337090532       -1.5374088718
 H         -5.6229545627        0.4924091250        0.6541646162
 H         -5.5808252462       -0.5468571972       -0.7816351836
 O         -3.3190814939       -1.2447349340       -0.7387907074
 C         -2.0776300079       -1.8566704042       -0.6048248766
 O         -1.8269286050       -2.6967996985       -1.4862367426
 O         -0.8986014907       -0.0406484109        2.2992539425
 C          0.0786829400       -2.1550880407        0.6613701947
 C          0.9193011332       -1.8566528267       -0.5581025591
 C          1.5476374214       -2.7449953404       -1.4201623471
 C          2.3011044976       -2.2766410590       -2.4861044578
 C          2.4725602886       -0.9247234500       -2.7110950505
 C          1.8411684079       -0.0218110702       -1.8620534429
 C          1.0718095580       -0.4954698485       -0.8156680666
 H          0.5589745250        0.2180560534       -0.1899870004
 N          1.9734750992        1.3630789501       -2.0352618156
 S          1.9575680574        2.3679092804       -0.6967037127
 O          0.6096694068        2.5607470674       -0.2277589852
 O          2.6414049198        3.5625353091       -1.1483311328
 C          2.9573830209        1.5329653195        0.5233918148
 C          4.3023979528        1.3898087017        0.2403843625
 C          5.1112078973        0.7127014513        1.1372921606
 C          4.5625965434        0.1883151979        2.2980828307
 C          3.2135661374        0.3476218088        2.5715954671
 C          2.3982475329        1.0269830066        1.6788558264
 H          1.3425341946        1.1515770407        1.8679990989
 H          2.7810504180       -0.0584010106        3.4722774550
 H          5.1888771406       -0.3460700204        2.9948493886
 H          6.1619951304        0.5924924635        0.9286517571
 H          4.6931246967        1.8208347417       -0.6670742686
 H          2.6544007874        1.6492252946       -2.7224461303
 H          3.0708910636       -0.5693738053       -3.5356782147
 H          2.7721278125       -2.9869993278       -3.1486617513
 H          1.4487895093       -3.8076339833       -1.2961071963
 H          0.5451979829       -1.5917567944        1.4883574598
 C         -0.1179692264       -3.5647997986        1.1935966073
 C         -0.3353407384       -4.7972039052        0.3732817026
 C          0.9228516330       -4.6442459370        1.1767318173
 H          1.0288781705       -5.2512876950        2.0638022366
 H          1.8540663398       -4.4537522705        0.6694139430
 H         -1.0797259969       -5.4995294476        0.7206833836
 H         -0.3151598355       -4.7036481025       -0.6996144063
 H         -0.7127681162       -3.5093754274        2.1036449343
