  62
        -98.93940307
 C         -2.5220046456       -0.8070752656        0.7448098804
 C         -3.1492329472       -0.3546738889       -0.4415801437
 C         -3.7726174983        0.9753332892       -0.3676183018
 C         -3.7068629435        1.6739220887        0.7802276200
 C         -4.2497225396        3.0595281481        0.9743340530
 C         -3.1876503420        4.1221169301        0.6584860926
 C         -2.4750628385        3.9060702692       -0.6767712118
 H         -1.7711413135        4.7308255563       -0.8070245259
 H         -1.8865094438        2.9869180053       -0.6242793587
 C         -3.4109750089        3.8368639860       -1.8915409736
 H         -2.9881441062        4.4443296617       -2.6944314888
 H         -4.3809431700        4.2657848669       -1.6373188059
 C         -3.6125610193        2.4298896762       -2.4575305145
 H         -2.6407052493        1.9588798701       -2.6271611428
 H         -4.1048821184        2.5217235399       -3.4293613148
 C         -4.4632709814        1.4825562476       -1.6021427937
 H         -5.4077430699        1.9663114195       -1.3448730301
 H         -4.6826824941        0.5977045508       -2.2067698051
 H         -3.6686300654        5.1018758832        0.6616667925
 H         -2.4378453578        4.1088097887        1.4528518577
 H         -5.1179357097        3.1962771184        0.3327620231
 H         -4.5583880988        3.1651942331        2.0157059026
 O         -3.0825317561        1.2113713489        1.8940073013
 C         -2.4642687202       -0.0274617269        1.8998171437
 O         -1.9008307307       -0.3155784276        2.9764442577
 O         -3.1927226025       -1.0214062049       -1.5074789358
 C         -1.8375178820       -2.1631771237        0.7812652895
 C         -0.6608406898       -2.1491211119       -0.1655664255
 C         -0.5201164263       -3.0180141822       -1.2379210041
 C          0.5854163326       -2.9291903729       -2.0675038994
 C          1.5693360019       -1.9844462763       -1.8450517698
 C          1.4449482142       -1.1175771266       -0.7658105098
 C          0.3376170857       -1.2089043365        0.0634720580
 H          0.2358878533       -0.5358006268        0.9067711230
 N          2.4367347289       -0.1436534309       -0.5307249152
 S          4.0417167755       -0.6736321664       -0.5960440981
 O          4.4401634663       -0.7452553529       -1.9792987417
 O          4.1935687040       -1.8920308967        0.1678918738
 C          4.8892027158        0.6736474624        0.2037138601
 C          5.1405238224        1.8226880904       -0.5220176236
 C          5.7861202676        2.8790429226        0.1003966298
 C          6.1678118267        2.7694031668        1.4294829003
 C          5.9093872475        1.6095098412        2.1442019674
 C          5.2621557772        0.5496825186        1.5283989391
 H          5.0479859759       -0.3736282490        2.0426677067
 H          6.2092998090        1.5260123837        3.1764209783
 H          6.6725451043        3.5919731646        1.9110713145
 H          5.9910472778        3.7819172543       -0.4518421019
 H          4.8349985909        1.8588864685       -1.5545939357
 H          2.2670124473        0.3595272514        0.3300534781
 H          2.4353758739       -1.9122097239       -2.4828071091
 H          0.6815218754       -3.6067871002       -2.9026144398
 H         -1.2769624143       -3.7598853566       -1.4310185973
 H         -1.4431840419       -2.2746537883        1.8017993340
 C         -2.8280169919       -3.2769340549        0.5202090228
 C         -2.5357898734       -4.6628181341        1.0087396764
 C         -3.6007504651       -3.8432285287        1.6718292078
 H         -4.6339893078       -4.1142771469        1.5153950714
 H         -3.3999688728       -3.4383060723        2.6532843824
 H         -2.8391816750       -5.5002035334        0.3989158983
 H         -1.6098832471       -4.8190671179        1.5416558150
 H         -3.3494259646       -3.1645957351       -0.4226521283
