  62
        -98.93909678
 C         -1.9721621400       -0.9008320152        0.0970444573
 C         -2.2548980772        0.0487456378        1.1030653779
 C         -2.3583550752        1.4522088411        0.6712034001
 C         -2.1557320942        1.7517631262       -0.6237017084
 C         -2.2484238392        3.1046935187       -1.2745525362
 C         -3.6567411468        3.3424971313       -1.8461446791
 C         -4.6615062962        3.9363660935       -0.8594602304
 H         -4.3997642952        4.9784995928       -0.6655186172
 H         -5.6387270766        3.9281839366       -1.3473573361
 C         -4.7746756917        3.2037622001        0.4798652528
 H         -5.7365632117        3.4651561423        0.9248837436
 H         -4.7781106076        2.1255466342        0.3104424823
 C         -3.6555257034        3.5718596845        1.4654661764
 H         -3.1267694901        4.4495051725        1.0942862391
 H         -4.0954708841        3.8568758133        2.4233411574
 C         -2.6480599686        2.4503826229        1.7592421841
 H         -1.6986362176        2.8922745536        2.0822650151
 H         -3.0090424822        1.8465398371        2.5981518748
 H         -4.0290888753        2.3861911834       -2.2220861047
 H         -3.5779286818        4.0206356575       -2.6981920677
 H         -1.9678575729        3.8866335795       -0.5749470604
 H         -1.5309366220        3.0980431348       -2.0980201296
 O         -1.8826050785        0.8049602565       -1.5632539926
 C         -1.7622891652       -0.5316376098       -1.2314018781
 O         -1.4893400382       -1.2801407836       -2.1899888179
 H          0.4451548052       -0.9673899796        0.8936700502
 C          0.6569087655       -1.9161033901        0.4205115217
 C         -0.3843537612       -2.7906218584        0.1354568019
 C         -0.0819981405       -4.0106621145       -0.4551500172
 C          1.2263348497       -4.3238185074       -0.7822475175
 C          2.2521712002       -3.4290795752       -0.5419224475
 C          1.9619950538       -2.2136905610        0.0688481984
 N          2.9790461356       -1.2840472915        0.3527043851
 S          2.6008541504        0.3590200560        0.2350392671
 O          1.9930396591        0.7848205463        1.4721534709
 O          1.8544944695        0.6241596268       -0.9743093926
 C          4.2427568285        1.0462840049        0.1150909096
 C          4.9919158955        1.1755398674        1.2695970919
 C          6.2817557935        1.6740027654        1.1786455468
 C          6.7985953039        2.0321526072       -0.0578196088
 C          6.0343104064        1.8987320043       -1.2072057994
 C          4.7438265896        1.3992553541       -1.1234435758
 H          4.1089869018        1.2834187437       -1.9874794335
 H          6.4367804652        2.1807831003       -2.1667189743
 H          7.8024750887        2.4203340695       -0.1259905926
 H          6.8778033123        1.7815140954        2.0703881312
 H          4.5432809097        0.8924917294        2.2074429824
 H          3.8430401994       -1.4954676052       -0.1288017647
 H          3.2675205126       -3.6647457322       -0.8222028929
 H          1.4469195854       -5.2719062969       -1.2488515362
 H         -0.8721944620       -4.7104066337       -0.6727819209
 C         -1.7879943180       -2.3568963995        0.4827965760
 H         -1.8987849871       -2.3875886266        1.5775999709
 C         -2.8616932388       -3.2220005011       -0.1432163481
 C         -3.3281001025       -4.4686359855        0.5460193799
 C         -4.2179170884       -3.2645113618        0.4926536130
 H         -5.0867125341       -3.2894566671       -0.1477596183
 H         -4.3575265915       -2.6885925613        1.3959505584
 H         -3.5903221646       -5.3240270520       -0.0580753908
 H         -2.8707769508       -4.7171788490        1.4917242917
 H         -2.8158093683       -3.2177375733       -1.2265567980
 O         -2.4189747862       -0.2636658091        2.3157543967
