  62
        -98.93880432
 C         -1.8125689876       -1.1094147861        0.4732739032
 C         -2.0902586945        0.1150239407        1.1352389826
 C         -3.4958034949        0.5315211251        1.1746487265
 C         -4.4389176886       -0.2606563152        0.6340544118
 C         -5.9198286646        0.0054689284        0.6190747635
 C         -6.3789292242        0.9164671886       -0.5274796543
 C         -5.9997763089        2.3903973830       -0.3785536526
 H         -6.5658028661        2.9446086196       -1.1298699554
 H         -6.3190566313        2.7499313310        0.6001226927
 C         -4.5052217236        2.6827454952       -0.5734742457
 H         -4.3849884041        3.5496475501       -1.2272822979
 H         -4.0291949193        1.8371345403       -1.0757027167
 C         -3.7427212411        2.9818381542        0.7175746797
 H         -2.6896088431        3.1353147279        0.4657676479
 H         -4.1202947140        3.9063484733        1.1604748873
 C         -3.8211745055        1.8679278689        1.7698445947
 H         -3.0796080821        2.0763325298        2.5450021429
 H         -4.8106370321        1.8511932933        2.2266672461
 H         -5.9735751529        0.5295021157       -1.4651758824
 H         -7.4678004029        0.8477280879       -0.5823473321
 H         -6.2237196109        0.4378734373        1.5727903996
 H         -6.4084178180       -0.9645310376        0.5046776904
 O         -4.1403008979       -1.4443270033        0.0408936363
 C         -2.8273887141       -1.8900862561       -0.0827255378
 O         -2.7282906071       -2.9726267216       -0.6872041082
 O         -1.2006924972        0.8207469981        1.6835080192
 C         -0.3553389782       -1.5296542813        0.4108095119
 C          0.2948933799       -1.0727443325       -0.8707286355
 C         -0.2764838104       -1.3369681149       -2.1118057355
 C          0.3462510391       -0.9131583585       -3.2715027736
 C          1.5401686002       -0.2153868173       -3.2178590526
 C          2.1192575449        0.0565005547       -1.9838936734
 C          1.4958173360       -0.3795484664       -0.8223554385
 H          1.9402281278       -0.1530207740        0.1338478683
 N          3.3449434291        0.7297098677       -1.9018076459
 S          3.6516897585        1.8154891558       -0.6628586560
 O          2.4617164152        2.5346557816       -0.2758351627
 O          4.7493646221        2.6164975546       -1.1615812124
 C          4.2434277935        0.7934014109        0.6686421176
 C          3.6127494533        0.8252687025        1.8965912102
 C          4.0936998151        0.0189953431        2.9167498154
 C          5.1912627350       -0.7978955805        2.6924027534
 C          5.8161369610       -0.8143990592        1.4542768350
 C          5.3405366358       -0.0111865868        0.4305168113
 H          5.7999134639        0.0087328586       -0.5435454245
 H          6.6690706751       -1.4514709628        1.2845455134
 H          5.5598513027       -1.4255651227        3.4883237277
 H          3.6056750314        0.0304290920        3.8783229880
 H          2.7538505584        1.4661939046        2.0271733197
 H          3.7122488859        1.0535260090       -2.7846339393
 H          2.0207432504        0.1185997625       -4.1249386776
 H         -0.1057867514       -1.1245310180       -4.2290367088
 H         -1.2072903793       -1.8816476623       -2.1567210483
 H          0.1244805197       -0.9745702827        1.2329991981
 C         -0.1412305314       -3.0123813129        0.6850401093
 C          0.3128943910       -3.9922007580       -0.3504478962
 C          1.2520575047       -3.5668942692        0.7356010932
 H          1.5009851649       -4.2716141965        1.5141175519
 H          2.0581098318       -2.9011538360        0.4647292097
 H         -0.1113764213       -4.9839314058       -0.3165496216
 H          0.4919188750       -3.6323846792       -1.3509792235
 H         -0.8424837329       -3.3883635314        1.4232182081
