  62
        -98.94566015
 C         -1.1351723347       -1.4437762903        0.7477246318
 C         -2.0193197070       -1.4052225341       -0.3569074455
 C         -2.9957933229       -0.3066124448       -0.3552362347
 C         -2.9754389472        0.5945206683        0.6436589004
 C         -3.8791807527        1.7892904328        0.7343244127
 C         -3.2574608410        3.0184578874        0.0571711876
 C         -2.7043768682        2.7466791744       -1.3412686337
 H         -2.3145188711        3.6914031183       -1.7252200796
 H         -1.8596314405        2.0579586763       -1.2637548615
 C         -3.7320478996        2.1836431453       -2.3327464194
 H         -4.7421434017        2.3745148543       -1.9680799700
 H         -3.6262550182        2.7092371204       -3.2840998762
 C         -3.5765192725        0.6914592819       -2.6298519942
 H         -2.5411602816        0.4766035434       -2.9068689876
 H         -4.2028990073        0.4488630799       -3.4925868469
 C         -3.9762455143       -0.2571345520       -1.4930383080
 H         -4.9743546604       -0.0001820836       -1.1323306054
 H         -4.0090352949       -1.2706481247       -1.9035205032
 H         -4.0153456767        3.8020989370        0.0046701177
 H         -2.4363348566        3.3737686774        0.6809900665
 H         -4.8334232190        1.5482451332        0.2694397674
 H         -4.0468623765        2.0129702797        1.7891185189
 O         -2.0936237009        0.5382980953        1.6750097306
 C         -1.1545103230       -0.4770418006        1.7530353936
 O         -0.4057437601       -0.4112073406        2.7486952669
 H          1.2758113971       -0.3199804374        0.2711804157
 C          1.4889524214       -1.0871250114       -0.4599536025
 C          0.8838972087       -2.3319380682       -0.3313115506
 C          1.1677835318       -3.3104764726       -1.2735471171
 C          2.0248756640       -3.0362422877       -2.3258986304
 C          2.6294307123       -1.7987597818       -2.4462758500
 C          2.3620378362       -0.8158887302       -1.4992836003
 N          2.9495834453        0.4566550922       -1.5820766097
 S          3.5295429068        1.1697469871       -0.1802490090
 O          4.5263697129        2.1121639053       -0.6452244273
 O          3.9900253796        0.1762011543        0.7614459757
 C          2.1635077048        2.0904837738        0.4916286105
 C          1.5431229405        3.0271445708       -0.3119233816
 C          0.5318903882        3.8044770629        0.2277723850
 C          0.1623790119        3.6350242319        1.5542276818
 C          0.7866536383        2.6833089392        2.3441037330
 C          1.8004337123        1.9043855799        1.8100091108
 H          2.3030443245        1.1486871179        2.3929329052
 H          0.4861490096        2.5317825657        3.3682479388
 H         -0.6140068833        4.2513352984        1.9807961163
 H          0.0368408709        4.5418479459       -0.3836157423
 H          1.8648638032        3.1357231083       -1.3343912431
 H          3.5952359763        0.5745724394       -2.3498161636
 H          3.3012750762       -1.5897773726       -3.2650799109
 H          2.2299228177       -3.8009253069       -3.0598192118
 H          0.7105972342       -4.2826631846       -1.1926118203
 C         -0.0664270099       -2.5205763858        0.8268008215
 H          0.4936822972       -2.3286099062        1.7538155628
 C         -0.6825092948       -3.9002466825        0.9048983509
 C          0.0898732045       -5.0290210857        1.5165843582
 C         -1.0810193103       -4.4409652279        2.2437903271
 H         -1.9887047431       -5.0209951091        2.3163036815
 H         -0.8893312419       -3.8208530708        3.1076468464
 H         -0.0144126272       -6.0163405228        1.0927881650
 H          1.0795319380       -4.8119692837        1.8899685739
 H         -1.3318498715       -4.1183054936        0.0655526511
 O         -2.0029112911       -2.2440239722       -1.2951379855
