  62
        -98.94556640
 C         -1.9692819310       -1.5128853984       -0.1017133390
 C         -1.6847138705       -0.2634092089       -0.7047344797
 C         -2.8091789402        0.6823701015       -0.7656084602
 C         -4.0152737603        0.3054694622       -0.3034931200
 C         -5.2304881100        1.1853251027       -0.2608490805
 C         -5.3306559397        1.9260234035        1.0800653791
 C         -4.0334940194        2.6170060333        1.5008152687
 H         -4.2306728292        3.1314514539        2.4439407984
 H         -3.2738025897        1.8581053131        1.7020510091
 C         -3.4879298591        3.6197662225        0.4747381881
 H         -4.2773973690        3.9004315424       -0.2234795921
 H         -3.1844013287        4.5270954227        1.0012646275
 C         -2.2681173093        3.1291618016       -0.3078213417
 H         -1.8406914690        3.9873410611       -0.8326173722
 H         -1.5116514294        2.7554950617        0.3866335386
 C         -2.5368184997        2.0386468211       -1.3523413710
 H         -3.3527411696        2.3479093010       -2.0086070512
 H         -1.6310139097        1.9230749704       -1.9543299710
 H         -5.6018247799        1.2048732041        1.8547607595
 H         -6.1321088094        2.6636875838        1.0085994087
 H         -5.1855889097        1.8997085322       -1.0804260609
 H         -6.1146374602        0.5579084029       -0.3860228301
 O         -4.2570750708       -0.9195757074        0.2310783607
 C         -3.2381444511       -1.8480176777        0.3686960313
 O         -3.5817669915       -2.9159167672        0.9155586519
 H          1.7884022587       -2.3172713802       -0.7051105286
 C          1.5803240589       -1.8609991095        0.2497946812
 C          0.2998647189       -1.9048785088        0.7755127412
 C          0.0684517591       -1.3059919780        2.0114021709
 C          1.0878155994       -0.6702847179        2.6930851405
 C          2.3626706294       -0.6144672787        2.1565319004
 C          2.6044786391       -1.2116194795        0.9277703208
 N          3.8959215892       -1.1528600603        0.3696315907
 S          4.6045950097        0.3583411593        0.2208981398
 O          5.6583398296        0.1820213384       -0.7534629301
 O          5.0186319099        0.8194131199        1.5224943596
 C          3.3279205701        1.4173259494       -0.4306942307
 C          3.0246431700        1.3199925088       -1.7737460407
 C          2.0084209003        2.1052211888       -2.2901697411
 C          1.3117940806        2.9649874496       -1.4566723516
 C          1.6248831307        3.0480353502       -0.1097842117
 C          2.6415871704        2.2658193202        0.4129169788
 H          2.9179073205        2.3045652507        1.4539679787
 H          1.0774952510        3.7169249408        0.5352707180
 H          0.5180326909        3.5734537696       -1.8601886420
 H          1.7568699403        2.0393503483       -3.3364998611
 H          3.5949243398        0.6459870982       -2.3930221603
 H          3.9754207090       -1.6542448109       -0.5037830890
 H          3.1690523796       -0.1138816587        2.6673806301
 H          0.8897814896       -0.2096196673        3.6493216402
 H         -0.9306362509       -1.3384157373        2.4256091709
 C         -0.8616782314       -2.5404101687        0.0522858016
 H         -1.2696972516       -3.3406822482        0.6859951521
 C         -0.5020351516       -3.1247346297       -1.2976977680
 C          0.1072161479       -4.4909941099       -1.3886613273
 C         -1.3084043420       -4.2701154897       -1.8282012974
 H         -1.5318825521       -4.2982344202       -2.8841807273
 H         -2.1064079322       -4.6454021690       -1.2041864471
 H          0.8540615478       -4.6764598907       -2.1461237672
 H          0.2736770477       -5.0262974795       -0.4660565870
 H         -0.1822573913       -2.3704446402       -2.0078282685
 O         -0.5566777904        0.0464963804       -1.1661031499
