  62
        -98.94791559
 C         -0.9594399714       -1.6453565991        0.4377507510
 C         -1.7233275217       -1.2890251485       -0.7007769686
 C         -2.8396026310       -0.3622244678       -0.4585962879
 C         -3.0837276801        0.0673342023        0.7923129322
 C         -4.2003089892        0.9907469730        1.1851076829
 C         -3.7629689382        2.4606850527        1.1853311428
 C         -3.0507144586        2.9006775724       -0.0937690175
 H         -2.8577788278        3.9727600022       -0.0055836975
 H         -2.0750775690        2.4142514617       -0.1632627581
 C         -3.8317444195        2.6306200030       -1.3869674671
 H         -4.8906388194        2.4905366437       -1.1636085766
 H         -3.7475781192        3.5093222730       -2.0300145571
 C         -3.3148522707        1.4391468827       -2.1967579275
 H         -2.2273671807        1.5138549420       -2.2872227881
 H         -3.7348595912        1.5039533331       -3.2045446873
 C         -3.6643396713        0.0507903329       -1.6438966675
 H         -4.7310436412        0.0045683136       -1.4116197969
 H         -3.4508713122       -0.6839267871       -2.4260698676
 H         -3.0861936377        2.6242058022        2.0273990725
 H         -4.6491725277        3.0802308633        1.3384828634
 H         -4.5247812389        0.7201936431        2.1919857531
 H         -5.0324877497        0.8509700536        0.4976413533
 O         -2.3242403597       -0.2912177383        1.8593883018
 C         -1.2374919604       -1.1402247090        1.7065744912
 O         -0.6140612300       -1.3686717496        2.7630318008
 O         -1.4960640227       -1.7320573285       -1.8571276888
 C          0.2178903079       -2.5907999199        0.3061092003
 C          1.2776985478       -2.0540664405       -0.6280738202
 C          2.2046314369       -2.8881714011       -1.2446943908
 C          3.1873411268       -2.3592277717       -2.0624454013
 C          3.2750355676       -0.9958447717       -2.2800480012
 C          2.3508814985       -0.1540713911       -1.6716843906
 C          1.3721911686       -0.6887230406       -0.8485114802
 H          0.6468892493       -0.0289686201       -0.4012634897
 N          2.3883068393        1.2274857789       -1.8839291705
 S          1.6456169606        2.3137510193       -0.8681814000
 O          0.2124000005        2.2125117202       -0.9727706693
 O          2.2187698813        3.5883964289       -1.2458740702
 C          2.1838579012        1.8829061087        0.7765812897
 C          1.2587168214        1.5214752293        1.7336298801
 C          1.6996067118        1.1548556088        2.9947965399
 C          3.0564227120        1.1653170979        3.2777193591
 C          3.9751667517        1.5467243474        2.3111772087
 C          3.5380919813        1.9055215478        1.0467974390
 H          4.2234382911        2.2102275874        0.2729019686
 H          5.0289863119        1.5583684966        2.5384269082
 H          3.3965076323        0.8739778676        4.2589102189
 H          0.9794236220        0.8405238493        3.7335817902
 H          0.2090221313        1.5178445800        1.4806716007
 H          3.2001419293        1.5926646284       -2.3557834109
 H          4.0388202576       -0.5858239522       -2.9223675915
 H          3.8981956261       -3.0182461821       -2.5372027517
 H          2.1517927463       -3.9531812611       -1.0871180109
 H          0.6635319384       -2.6592863103        1.3106110600
 C         -0.2643289032       -3.9705592495       -0.1040785096
 C          0.3758417462       -5.2043559900        0.4557189699
 C         -0.9983444233       -4.8063095691        0.9001457707
 H         -1.8432166439       -5.3904792785        0.5677088411
 H         -1.1162338425       -4.3940662291        1.8921001208
 H          0.4745601753       -6.0684822700       -0.1840527202
 H          1.1855968467       -5.0765897706        1.1583383795
 H         -0.6180480538       -3.9963962392       -1.1283549894
