  62
        -98.94686462
 C          1.6803172734        1.2408163057        0.3801053640
 C          1.3665709581        0.1898342758       -0.5154111592
 C          2.0411622761       -1.0869942153       -0.2620935911
 C          2.8410315357       -1.2185163844        0.8109038177
 C          3.5691197858       -2.4683012045        1.2255955600
 C          4.9037763818       -2.6880186859        0.4995952254
 C          4.7879169361       -3.1111779868       -0.9652932081
 H          5.7793257286       -3.4413139212       -1.2817094017
 H          4.1188323640       -3.9688523693       -1.0410541421
 C          4.3123609502       -1.9989990571       -1.9102500923
 H          4.9433977440       -1.9845044872       -2.8015805316
 H          4.4279956655       -1.0303792161       -1.4186734043
 C          2.8652659391       -2.1442022110       -2.3810341279
 H          2.7648604102       -3.0490114282       -2.9842746774
 H          2.6230539915       -1.2870559959       -3.0139598494
 C          1.8361527915       -2.1997252533       -1.2442790386
 H          0.8369104526       -2.0827946700       -1.6711495851
 H          1.8805164807       -3.1636394556       -0.7371458980
 H          5.4927162983       -1.7705274495        0.5691664175
 H          5.4417573307       -3.4701554697        1.0402606402
 H          3.7697335591       -2.3696325675        2.2949513698
 H          2.9203376894       -3.3322571251        1.0759003236
 O          3.0685490058       -0.2009210236        1.6855308097
 C          2.4985332632        1.0469369642        1.4903787598
 O          2.7858275941        1.8877748635        2.3696602712
 H         -0.3952188122        1.1562577240        1.9019500255
 C         -1.0312347608        1.6005482916        1.1451101043
 C         -0.4669851063        2.4221499562        0.1764118638
 C         -1.3032637494        2.9854476865       -0.7784905397
 C         -2.6571838333        2.6948886794       -0.7887596469
 C         -3.2001657888        1.8222539106        0.1369427873
 C         -2.3754820072        1.2780894069        1.1117577946
 N         -2.9179226264        0.3062785311        2.0063481230
 S         -2.5227768611       -1.2477690320        1.4623748044
 O         -3.1803785835       -2.1605389527        2.3748236784
 O         -1.0891620089       -1.4207739176        1.3499110737
 C         -3.3053773729       -1.2955339202       -0.1311611730
 C         -4.6407025978       -1.6452510014       -0.1910681500
 C         -5.2803555971       -1.6367498357       -1.4197376344
 C         -4.5776070474       -1.2739771082       -2.5593204671
 C         -3.2388079609       -0.9230666156       -2.4798382008
 C         -2.5900021724       -0.9303588232       -1.2543420894
 H         -1.5507379359       -0.6512129990       -1.1627333220
 H         -2.6893019133       -0.6351792655       -3.3616676980
 H         -5.0757653563       -1.2631902048       -3.5160101491
 H         -6.3216096702       -1.9084266250       -1.4848615408
 H         -5.1410154893       -1.9198205364        0.7230514683
 H         -2.5527255252        0.4000902418        2.9458939407
 H         -4.2435411415        1.5532594014        0.1149911889
 H         -3.2913015917        3.1329856307       -1.5436554091
 H         -0.8891873801        3.6380249933       -1.5296496269
 C          1.0308098844        2.6028508272        0.1988912760
 H          1.3023602911        3.1941491935        1.0856684284
 C          1.5766165994        3.2867265965       -1.0370564752
 C          1.6257074868        4.7824688716       -1.1143296318
 C          2.8918811723        3.9984639008       -0.9486877153
 H          3.5723331692        3.9303616168       -1.7841076955
 H          3.3835316649        4.0113428145        0.0135190477
 H          1.2617912054        5.3394310553       -0.2642724699
 H          1.4406699871        5.2565263358       -2.0662721667
 H          1.3688075790        2.7308104719       -1.9440543847
 O          0.5649841343        0.3128959803       -1.4775420549
