  62
        -98.94042748
 C         -1.3421031017       -1.4455995067       -0.2760436598
 C         -2.5510305663       -1.4721901682        0.4632640101
 C         -3.6527438850       -0.6226248717       -0.0173380904
 C         -3.4607026489        0.1260464735       -1.1169682638
 C         -4.4194253958        1.1019737520       -1.7414049618
 C         -4.1710452210        2.5229997610       -1.2074488371
 C         -4.9239411490        2.8685827329        0.0768020322
 H         -4.5639779433        3.8448037562        0.4099925066
 H         -5.9880334476        2.9696847224       -0.1476079441
 C         -4.7577462470        1.8664386963        1.2222436838
 H         -5.0054491175        2.3793384244        2.1537444746
 H         -3.7118102532        1.5602926345        1.2921111432
 C         -5.6594006060        0.6310184228        1.0798966479
 H         -6.2124094202        0.4791607433        2.0091361088
 H         -6.4022188318        0.8205316603        0.3052355957
 C         -4.9259557700       -0.6846992098        0.7817147562
 H         -4.6369576182       -1.1616107488        1.7236027052
 H         -5.6170386330       -1.3723869020        0.2827027537
 H         -3.0951924537        2.6396352532       -1.0471475447
 H         -4.4642428118        3.2425443914       -1.9749309999
 H         -5.4474832921        0.7933794695       -1.5755850897
 H         -4.2170824663        1.0940804741       -2.8145183357
 O         -2.2883907940        0.1211947754       -1.8046075645
 C         -1.2003702869       -0.6406896965       -1.4072360465
 O         -0.2084343552       -0.5099759010       -2.1499710457
 O         -2.7033098894       -2.1874981606        1.4915308204
 C         -0.2158033725       -2.3141777873        0.2498832097
 C          0.6840723056       -1.5718615402        1.2129226942
 C          1.2731051519       -2.2446141393        2.2787338962
 C          2.1143433091       -1.5811901948        3.1523092056
 C          2.3936849390       -0.2377989987        2.9758157713
 C          1.8076343380        0.4458879246        1.9170891949
 C          0.9588988629       -0.2237913303        1.0456870311
 H          0.5004235515        0.3265511421        0.2397532564
 N          2.0545117866        1.8131654220        1.7249924470
 S          2.2436451445        2.4209276994        0.1758675454
 O          2.9246098461        3.6832397341        0.3791537930
 O          0.9688246218        2.4976275082       -0.4900714583
 C          3.3507160083        1.2684744471       -0.6145678875
 C          2.8902039409        0.3549017034       -1.5392429954
 C          3.7873786835       -0.5607454132       -2.0703233841
 C          5.1138477679       -0.5498154925       -1.6708508288
 C          5.5609809545        0.3808945193       -0.7445886172
 C          4.6722423143        1.2971218829       -0.2089967266
 H          4.9808485688        2.0453586122        0.5031070031
 H          6.5945949599        0.3919611421       -0.4384840969
 H          5.8025448887       -1.2687283406       -2.0859248119
 H          3.4352344671       -1.2797544726       -2.7932897952
 H          1.8512410142        0.3578988035       -1.8314119159
 H          2.7319224801        2.2111124059        2.3591284215
 H          3.0484813597        0.2835902793        3.6568844141
 H          2.5595957620       -2.1137822834        3.9784934818
 H          1.0548092228       -3.2907491515        2.4288208111
 H         -0.7105358649       -3.1160629544        0.8164085991
 C          0.6315365587       -2.9482896136       -0.8372953679
 C          1.2582730656       -4.2896471550       -0.6095307601
 C          0.1156456873       -4.1494188694       -1.5691592965
 H          0.3079715383       -4.2266018979       -2.6284753201
 H         -0.8493620343       -4.5355629347       -1.2739421973
 H          2.2451957740       -4.4681817921       -1.0070229897
 H          1.0651997210       -4.7863776383        0.3287128754
 H          1.1918196114       -2.2232259934       -1.4123428530
