  62
        -98.94491818
 C         -2.5851651000       -1.0534437604        0.3293362307
 C         -2.7187255402       -0.3364778203       -0.8852668392
 C         -3.3099858102        1.0033628697       -0.7721293490
 C         -3.6554365900        1.4863706396        0.4345279411
 C         -4.2797070499        2.8275172896        0.7089665913
 C         -3.2678760699        3.9775488596        0.8064945112
 C         -2.6502679601        4.4160025097       -0.5219572588
 H         -3.4435011503        4.6060272397       -1.2457220387
 H         -2.1396306501        5.3636879997       -0.3398049188
 C         -1.6408561202        3.4209674097       -1.1119146791
 H         -0.7503201303        3.9578261397       -1.4472723392
 H         -1.3064453901        2.7271305397       -0.3359214692
 C         -2.1605346205        2.6183710598       -2.3047409891
 H         -2.3496788006        3.2916753699       -3.1439746490
 H         -1.3788879705        1.9150376698       -2.6033734893
 C         -3.4390582104        1.8188396198       -2.0230041889
 H         -4.2946180904        2.4901689898       -1.9532338487
 H         -3.5993333606        1.1282411899       -2.8544604689
 H         -2.4719495698        3.6873864095        1.4969873111
 H         -3.7887566098        4.8340279395        1.2408613514
 H         -5.0162041201        3.0540679096       -0.0623396585
 H         -4.7946614897        2.7403566195        1.6681392714
 O         -3.4816369998        0.7771755295        1.5823071510
 C         -2.9212271598       -0.4888305905        1.5597771108
 O         -2.7754952795       -1.0036593806        2.6892007307
 H         -0.1747031697       -1.1295500805        1.7761862603
 C          0.2841163301       -1.5315735104        0.8802001001
 C         -0.4946095100       -2.2822355104        0.0064396502
 C          0.0977248998       -2.7869888903       -1.1422065199
 C          1.4327036897       -2.5311833802       -1.4089776601
 C          2.2005546699       -1.7758475303       -0.5417041002
 C          1.6172496801       -1.2716480304        0.6139954599
 N          2.3924895502       -0.4894768105        1.4997312299
 S          2.9023384601        0.9895195596        0.8713507199
 O          3.1267603203        1.8389192895        2.0217408799
 O          1.9784254399        1.4855264296       -0.1230078999
 C          4.4677239300        0.5994856596        0.1198138696
 C          4.6505734397        0.7950616397       -1.2348057805
 C          5.8788070696        0.4807862598       -1.7960511707
 C          6.8949444498       -0.0208222103       -0.9970975609
 C          6.6949167300       -0.2100153804        0.3625106691
 C          5.4703582101        0.1032627996        0.9301617793
 H          5.2722452603       -0.0237432305        1.9813161394
 H          7.4874679101       -0.6005710504        0.9801608089
 H          7.8488174497       -0.2656114002       -1.4369685311
 H          6.0362299294        0.6270997799       -2.8525425407
 H          3.8281749796        1.1806122998       -1.8161217803
 H          1.9250315804       -0.3259183906        2.3813547799
 H          3.2383785898       -1.5717285403       -0.7494012004
 H          1.8798692796       -2.9234012602       -2.3095182203
 H         -0.4895950004       -3.3639148802       -1.8369414799
 C         -1.9568208000       -2.4389278204        0.3482290405
 H         -2.0240996998       -2.7858099205        1.3892436605
 C         -2.7032715501       -3.4094532103       -0.5395384395
 C         -2.5367621401       -4.8828800003       -0.3237768296
 C         -3.8256099500       -4.2124962504        0.0431592507
 H         -4.6968921901       -4.3969913103       -0.5669992292
 H         -4.0497373998       -4.0701558405        1.0905753407
 H         -2.5242434102       -5.5324673703       -1.1854928297
 H         -1.8844652399       -5.1986308004        0.4763593102
 H         -2.8231052603       -3.0498028502       -1.5537981894
 O         -2.3745045104       -0.7852420302       -2.0083473793
