  62
        -98.93746889
 C          2.2812221833       -0.4887193148        0.3104524682
 C          3.5338228594       -0.8983900011        0.8358124315
 C          4.7059823134       -0.6351533678       -0.0055988444
 C          4.5405957954       -0.0923308136       -1.2249954901
 C          5.6333921220        0.2171463230       -2.2119233454
 C          6.3253428899        1.5663422285       -1.9734454116
 C          7.2514475269        1.6171438086       -0.7575460069
 H          7.9545138555        0.7849057057       -0.8026274274
 H          7.8316632918        2.5387139233       -0.8354314117
 C          6.5237009036        1.6058346457        0.5941309199
 H          6.9501858205        2.3729397805        1.2444602498
 H          5.4725905444        1.8640559885        0.4439768183
 C          6.6051480972        0.2774907852        1.3467106373
 H          7.6428505941        0.0745932493        1.6202351301
 H          6.0260707727        0.3698620890        2.2693667143
 C          6.0615092913       -0.9253176087        0.5643685498
 H          5.9581731379       -1.7659241622        1.2547759312
 H          6.7560543776       -1.2047311354       -0.2273984960
 H          6.9175546579        1.7901200593       -2.8637135286
 H          5.5596025142        2.3400880964       -1.8808880586
 H          6.3758089970       -0.5812951772       -2.1983650805
 H          5.1638333758        0.2399781375       -3.1976174363
 O          3.3162113001        0.2237793704       -1.7222677460
 C          2.1588638256        0.0547128000       -0.9692906651
 O          1.1233406563        0.4128136684       -1.5598970220
 O          3.6644222901       -1.4641416833        1.9538268200
 C          1.0553232121       -0.7098644522        1.1770296956
 C         -0.0674080445       -1.3161753221        0.3750465094
 C          0.1027051671       -2.5923786367       -0.1565999507
 C         -0.9005622550       -3.1906277045       -0.8931014140
 C         -2.1029969476       -2.5373635531       -1.0998306655
 C         -2.2792340323       -1.2605272703       -0.5814225757
 C         -1.2646031728       -0.6576517126        0.1490423114
 H         -1.4227012300        0.3408080535        0.5209760695
 N         -3.4756557700       -0.5583798125       -0.7970471435
 S         -4.0454817124        0.4528307965        0.4267113367
 O         -3.4248434500        1.7476488288        0.3043479240
 O         -3.9102454929       -0.1997867150        1.7103507468
 C         -5.7667839971        0.5685264531       -0.0277090372
 C         -6.1344700837        1.4682365716       -1.0105386156
 C         -7.4654985245        1.5389905627       -1.3897859509
 C         -8.4015505775        0.7136069797       -0.7842542347
 C         -8.0181224129       -0.1825737564        0.2021378463
 C         -6.6882507654       -0.2593842640        0.5853862649
 H         -6.3455607814       -0.9341162321        1.3533149571
 H         -8.7485602383       -0.8201066568        0.6736212097
 H         -9.4368031153        0.7714325990       -1.0812959839
 H         -7.7674459735        2.2368442648       -2.1540498657
 H         -5.3734749788        2.0949641947       -1.4458669449
 H         -4.2098284070       -1.1349754401       -1.1842164459
 H         -2.8912471673       -3.0062068500       -1.6692580038
 H         -0.7512156486       -4.1788165772       -1.3018385526
 H          1.0400327738       -3.1058444872        0.0116567271
 H          1.3786366591       -1.4583628471        1.9209728342
 C          0.6229370760        0.5190067200        1.9629281070
 C          1.6233365866        1.5306737036        2.4333071205
 C          0.6320452353        1.8950609819        1.3710519020
 H         -0.1795859272        2.5629110315        1.6227715099
 H          0.9762633746        1.9996401744        0.3537684119
 H          1.5026366913        1.9528604300        3.4195448014
 H          2.6534953743        1.3865942066        2.1413004602
 H         -0.1924581714        0.2941027754        2.6455503490
