  62
        -98.94614175
 C          1.8998207768        1.2770756015        0.3046703896
 C          1.6682079609       -0.0802498419       -0.0193768273
 C          2.7772205214       -1.0039578347        0.2591231617
 C          3.9095346997       -0.5274735226        0.8081740449
 C          5.1330562630       -1.3470275624        1.0968674149
 C          6.1031740883       -1.3350534876       -0.0926960064
 C          5.4396968317       -1.6503849492       -1.4333574374
 H          4.7441899369       -0.8463890908       -1.6852768103
 H          6.2238562398       -1.6454036721       -2.1935925384
 C          4.6968317711       -2.9931680257       -1.4735467354
 H          5.0336735641       -3.6277698812       -0.6530710115
 H          4.9499920047       -3.5053904736       -2.4042095627
 C          3.1721552445       -2.8757154866       -1.4310185209
 H          2.8380622875       -2.1677714841       -2.1939353657
 H          2.7490795320       -3.8514995340       -1.6843978241
 C          2.5712417666       -2.4524027749       -0.0846898400
 H          1.4880411813       -2.5913128623       -0.1503151389
 H          2.9556540742       -3.0964011530        0.7088111301
 H          6.8968360489       -2.0587307809        0.1016761593
 H          6.5566445843       -0.3434498926       -0.1601862378
 H          5.6348114883       -0.9212196079        1.9673649116
 H          4.8343719054       -2.3683107283        1.3248573387
 O          4.0862794123        0.7807430788        1.1258128019
 C          3.0942706792        1.7148397342        0.8770938799
 O          3.3865440342        2.8802996260        1.2124331341
 H         -1.7576688216        1.8881022559       -0.9153276712
 C         -1.6610534434        1.7673793490        0.1501475155
 C         -0.4385044290        1.9371456888        0.7794584909
 C         -0.3683254192        1.7615774502        2.1601225759
 C         -1.4898042561        1.4174214234        2.8884699210
 C         -2.7056148452        1.2291807130        2.2531806435
 C         -2.7873202327        1.4036935764        0.8780062058
 N         -4.0123355750        1.2367227401        0.2023679075
 S         -4.1193381342        0.0914350813       -1.0169914747
 O         -3.2024665884        0.4151623947       -2.0774033290
 O         -5.5224104679        0.0664619408       -1.3716082025
 C         -3.6845394339       -1.4461851956       -0.2228791499
 C         -4.7074318070       -2.2672036014        0.2130322824
 C         -4.3927868744       -3.4322222139        0.8925654675
 C         -3.0646581484       -3.7494698314        1.1352874860
 C         -2.0521054644       -2.9117683089        0.6953468374
 C         -2.3570731387       -1.7460546159        0.0083637483
 H         -1.5773861442       -1.0885484366       -0.3431427356
 H         -1.0168092816       -3.1500895589        0.8825069640
 H         -2.8163222031       -4.6538024341        1.6683924402
 H         -5.1801844804       -4.0854212035        1.2327919300
 H         -5.7247167727       -1.9807438723       -0.0003469827
 H         -4.8024513007        1.1260224665        0.8232367356
 H         -3.5834249029        0.9534296225        2.8179641469
 H         -1.4176011014        1.2873082224        3.9576590698
 H          0.5849301722        1.9003712026        2.6527126696
 C          0.8210233069        2.3119439585        0.0372066170
 H          1.1955548907        3.2568550270        0.4572349214
 C          0.6203147515        2.4898195102       -1.4529188149
 C          0.0948717701        3.7866103884       -1.9881647224
 C          1.5302151860        3.4130840770       -2.2033299405
 H          1.8479605800        3.1309604497       -3.1960394055
 H          2.2865096565        3.9345988449       -1.6343283083
 H         -0.1240578317        4.5687383440       -1.2768670760
 H         -0.5768012656        3.7591475118       -2.8331238426
 H          0.3171990137        1.5756040269       -1.9513316535
 O          0.5912369900       -0.5035408221       -0.5136423618
