  62
        -98.94354632
 C          1.8450490513        0.8277620073        0.7788311010
 C          2.1214749727        0.4322796299       -0.5522115417
 C          3.5399919805        0.4438871990       -0.9384506723
 C          4.4642023062        0.8433667543       -0.0457859586
 C          5.9452787484        0.8473830520       -0.2885524628
 C          6.5817678232       -0.4787059101        0.1510932690
 C          5.8579566635       -1.7167065526       -0.3786697667
 H          6.4115477894       -2.5911041392       -0.0294498875
 H          4.8626253851       -1.7673798056        0.0689038213
 C          5.7278042971       -1.7705354317       -1.9072635234
 H          5.9818347803       -2.7776828321       -2.2444765781
 H          6.4437920801       -1.0862419339       -2.3639455916
 C          4.3252907400       -1.4640149548       -2.4360498129
 H          3.5920657695       -2.0829670768       -1.9124642938
 H          4.2929546741       -1.7419612690       -3.4928816523
 C          3.8790192767       -0.0000108090       -2.3335340268
 H          4.6396902978        0.6487406068       -2.7722996660
 H          2.9574742251        0.1072010179       -2.9128991966
 H          7.6205895062       -0.4913926387       -0.1837299513
 H          6.5762770498       -0.5200832073        1.2428566952
 H          6.1349437516        1.0207179548       -1.3459171787
 H          6.3868344576        1.6610874279        0.2892150359
 O          4.1549794651        1.2457391427        1.2140025145
 C          2.8443150341        1.2320141199        1.6629085799
 O          2.7008684819        1.5937270712        2.8489036268
 O          1.2334675973        0.0851952666       -1.3729556375
 C          0.4134364176        0.8201483983        1.2816455070
 C         -0.1936447889       -0.5522274874        1.1180544292
 C          0.5521471521       -1.6721308569        1.4777403272
 C          0.0308497471       -2.9431756678        1.3388952552
 C         -1.2531264476       -3.1256256455        0.8556331626
 C         -2.0121069219       -2.0156052977        0.5083270646
 C         -1.4805319400       -0.7393158205        0.6391245121
 H         -2.0860880559        0.1082476168        0.3661425733
 N         -3.3089727535       -2.1665181118       -0.0006015647
 S         -4.5123768191       -1.0792897522        0.3991163715
 O         -4.3684338110       -0.5948982477        1.7521867015
 O         -5.7450072384       -1.7807596805        0.1076175312
 C         -4.3305117849        0.2623350435       -0.7572506775
 C         -4.6482554312        1.5407947371       -0.3430253718
 C         -4.5531309757        2.5842331808       -1.2506239938
 C         -4.1441327195        2.3317104520       -2.5508076744
 C         -3.8308964462        1.0417175670       -2.9513813369
 C         -3.9279140117       -0.0064987965       -2.0502177429
 H         -3.6854218550       -1.0184005836       -2.3285782148
 H         -3.5087143742        0.8495322912       -3.9621568108
 H         -4.0669423399        3.1451281273       -3.2549865260
 H         -4.7960952483        3.5882726123       -0.9403035648
 H         -4.9503635338        1.6935758779        0.6810110097
 H         -3.6504977310       -3.1153268913       -0.0407751688
 H         -1.6621689112       -4.1185411368        0.7464530418
 H          0.6258344419       -3.8012101726        1.6143139227
 H          1.5533810142       -1.5309156165        1.8627729612
 H          0.4649823860        1.0413146120        2.3583696625
 C         -0.3795902339        1.9151895063        0.5980339871
 C         -1.5266152346        2.5738904069        1.3017698902
 C         -0.2446645694        3.3218096015        1.0953770482
 H         -0.2263467171        4.1245849975        0.3739746981
 H          0.3991412297        3.4851146305        1.9476677017
 H         -2.3875563242        2.8636094582        0.7184401856
 H         -1.7659795228        2.2328483628        2.2980485129
 H         -0.4536643095        1.7664319285       -0.4733198492
