  62
        -98.93814092
 C         -1.4921816802       -1.5448028301        0.5070583800
 C         -2.2968184203       -1.0072003905       -0.5258428901
 C         -3.2315354506        0.0671839294       -0.1340599403
 C         -3.2175763707        0.5335189297        1.1256253696
 C         -4.1109840809        1.5606029996        1.7788114394
 C         -4.5596516112        2.7678448693        0.9494099791
 C         -3.4767244213        3.3400320794        0.0244609190
 H         -3.3850740716        4.4129020695        0.2032727988
 H         -2.5164181512        2.8836464097        0.2643781891
 C         -3.7802634813        3.1316066490       -1.4605055209
 H         -4.8337473213        3.3574229687       -1.6392707510
 H         -3.1924888514        3.8443075190       -2.0443422511
 C         -3.4701563310        1.7357253590       -1.9987283307
 H         -2.3903207009        1.5649178092       -2.0014349806
 H         -3.8030348909        1.6960366887       -3.0385091806
 C         -4.1239749807        0.5752239290       -1.2306734804
 H         -5.1050472008        0.8539812288       -0.8542146005
 H         -4.2461700805       -0.2601349412       -1.9252519802
 H         -5.4374058411        2.5052857790        0.3613684692
 H         -4.8767799414        3.5333804694        1.6601350890
 H         -4.9960310608        1.0377420195        2.1550381895
 H         -3.5541290510        1.9078098199        2.6534089693
 O         -2.3399697806        0.0611190101        2.0595834797
 C         -1.4788970103       -0.9837688098        1.7850829599
 O         -0.7560527903       -1.3172862294        2.7471925500
 H          1.6047984298       -1.7893476392        1.5373397301
 C          1.7272910498       -1.7112637693        0.4647635001
 C          0.7120964599       -2.1707458397       -0.3644685598
 C          0.8619341899       -2.0361103100       -1.7393641099
 C          2.0054441498       -1.4585515299       -2.2639921300
 C          3.0143063497       -0.9995212795       -1.4354736301
 C          2.8677793697       -1.1239641292       -0.0600791501
 N          3.8696054696       -0.6156990588        0.7925754198
 S          4.2572507792        0.9957526012        0.5436513095
 O          5.2366194992        1.0942374312       -0.5093299405
 O          4.6694116691        1.5026321116        1.8336325894
 C          2.7322614690        1.7605896308        0.0170020093
 C          1.6347224291        1.6717337707        0.8502371494
 C          0.4331598189        2.2212921104        0.4364052092
 C          0.3490528688        2.8521389601       -0.7951068209
 C          1.4607776788        2.9364265802       -1.6183959109
 C          2.6639900189        2.3817001105       -1.2131190008
 H          3.5501182489        2.4157290306       -1.8257010008
 H          1.3901441787        3.4270043799       -2.5756980110
 H         -0.5887057813        3.2799302498       -1.1135254210
 H         -0.4308862910        2.1421876703        1.0786550793
 H          1.7197381692        1.1786040609        1.8061090095
 H          3.6776261596       -0.7804089886        1.7707676299
 H          3.9059253896       -0.5373786893       -1.8277642902
 H          2.1100925597       -1.3582858701       -3.3334056300
 H          0.0672726900       -2.3575974603       -2.3924121598
 C         -0.5411349700       -2.7116588899        0.2782993703
 H         -0.2700156299       -3.0721060296        1.2800066803
 C         -1.1698524497       -3.8562006302       -0.4868419795
 C         -0.4883705794       -5.1903534200       -0.4756767192
 C         -1.7724477094       -4.9981042802        0.2725366807
 H         -2.6697861193       -5.4571511405       -0.1144537292
 H         -1.7338919195       -4.9605954699        1.3518431707
 H         -0.5015339693       -5.7840845202       -1.3765903491
 H          0.4230321706       -5.2805741697        0.0963921608
 H         -1.6701616798       -3.5512809705       -1.3956823196
 O         -2.2759301302       -1.4085706007       -1.7165651200
