  62
        -98.94117283
 C          2.0415792363        0.3888680832        0.0491177510
 C          3.1340202896        1.1001454045        0.6113830164
 C          4.3452126852        0.3201550990        0.8859338056
 C          4.3480275569       -1.0056215324        0.6604013471
 C          5.4939976194       -1.9459114749        0.9179732871
 C          6.5262547326       -1.9977500750       -0.2167644394
 C          7.4190871829       -0.7623946766       -0.3413038420
 H          7.8679575035       -0.5410570993        0.6274985187
 H          8.2303954210       -1.0214620145       -1.0244968532
 C          6.7027119719        0.4854175725       -0.8765584187
 H          5.7642635417        0.1897859513       -1.3517258416
 H          7.3168520648        0.9551253913       -1.6482328341
 C          6.4093855004        1.5507360512        0.1800900004
 H          5.8699048124        2.3710596917       -0.3005326382
 H          7.3489917424        1.9490718196        0.5691110344
 C          5.5636296055        1.0532362499        1.3596750072
 H          6.1625229780        0.4159003814        2.0099022548
 H          5.2276282730        1.9213499383        1.9320582380
 H          7.1654578671       -2.8650397489       -0.0357431015
 H          6.0006738403       -2.1646078549       -1.1599773921
 H          5.9895048734       -1.6728240662        1.8501602847
 H          5.0590163081       -2.9410401450        1.0339663446
 O          3.2627208509       -1.6633657063        0.1772743871
 C          2.0916264726       -0.9907896191       -0.1596610726
 O          1.2075590511       -1.7368680486       -0.6186507220
 O          3.0959920589        2.3309216743        0.8758010348
 C          0.7842262278        1.1843205251       -0.2583036206
 C         -0.4200421599        0.4995910675        0.3334656927
 C         -0.6393891687        0.5819253029        1.7053477778
 C         -1.7144538990       -0.0607811084        2.2898131588
 C         -2.5920038840       -0.8018820929        1.5184725646
 C         -2.3810406882       -0.8905641893        0.1488003246
 C         -1.3102359308       -0.2294522887       -0.4389817758
 H         -1.1449977037       -0.3232959893       -1.5008282565
 N         -3.2628834053       -1.6470701014       -0.6378892698
 S         -4.9042562560       -1.5137603664       -0.3674468225
 O         -5.2821743248       -2.3074090418        0.7757333668
 O         -5.5262451544       -1.8779898082       -1.6212467362
 C         -5.1757173058        0.2148085736       -0.0164271932
 C         -4.8556721472        1.1339446247       -0.9962459060
 C         -5.0283107391        2.4826733879       -0.7325470542
 C         -5.5139426295        2.8879739175        0.5015288054
 C         -5.8343763416        1.9531109018        1.4731969230
 C         -5.6627813017        0.6023449745        1.2148748054
 H         -5.8986027990       -0.1575252296        1.9420141329
 H         -6.2138206759        2.2710387023        2.4309140847
 H         -5.6441977536        3.9391177808        0.7051731137
 H         -4.7817019488        3.2121093855       -1.4873507516
 H         -4.4870717063        0.7843825729       -1.9472246244
 H         -3.0347393665       -1.6654343733       -1.6199885603
 H         -3.4227536928       -1.3289430241        1.9589280474
 H         -1.8690272887        0.0093477341        3.3558219637
 H          0.0534221818        1.1492503668        2.3114224798
 H          0.9320932834        2.1351126193        0.2791953562
 C          0.6062272154        1.5447371408       -1.7258119778
 C          1.7941039281        1.8854408230       -2.5738276694
 C          1.0099613166        0.6390846603       -2.8489785866
 H          0.3873616690        0.6127992163       -3.7319329438
 H          1.4481995797       -0.3143630979       -2.5991001268
 H          1.7161016615        2.7090664954       -3.2673306648
 H          2.7709279781        1.7840877164       -2.1235340307
 H         -0.2862224762        2.1428272703       -1.8842491851
