  62
        -98.94383650
 C         -1.5063195508       -1.5795935349       -0.1582442128
 C         -1.3857650824       -0.2711514491        0.3739872923
 C         -2.6484132104        0.3648499145        0.7811525391
 C         -3.8030849358       -0.3198294749        0.7107819195
 C         -5.1604884718        0.1836477855        1.1211277336
 C         -5.8764951457        1.0047849992        0.0401082622
 C         -5.3009777036        2.4005511849       -0.2023260460
 H         -6.0208650775        2.9409091312       -0.8203589646
 H         -5.2254723906        2.9303974004        0.7476792252
 C         -3.9383891491        2.4078158113       -0.9092068608
 H         -3.7663922176        1.4356348888       -1.3770657631
 H         -3.9489743780        3.1494582942       -1.7111663045
 C         -2.7534845937        2.7379152568       -0.0012669092
 H         -2.8495708180        3.7628021101        0.3634234424
 H         -1.8398558434        2.6716811481       -0.5962896640
 C         -2.5969053885        1.8017023042        1.2040155924
 H         -1.6152887031        1.9773340654        1.6506728967
 H         -3.3666233307        2.0094629485        1.9468271358
 H         -5.8654618751        0.4382875536       -0.8941144116
 H         -6.9187033386        1.1126037743        0.3496260547
 H         -5.7657533043       -0.6987518463        1.3402876733
 H         -5.0709244199        0.7778592601        2.0309740840
 O         -3.8639022554       -1.6047155530        0.2674346144
 C         -2.7297150230       -2.2534488830       -0.1938317590
 O         -2.9353720024       -3.4187012722       -0.5902261370
 H          2.1527524298       -1.0874239657       -0.9568075207
 C          2.0130872435       -1.5344736384        0.0124200467
 C          0.8411211268       -2.2070250480        0.3175575944
 C          0.6997085329       -2.7639797699        1.5861255695
 C          1.7038303883       -2.6426155134        2.5265742051
 C          2.8674887228       -1.9575221077        2.2239665189
 C          3.0183375744       -1.4002883846        0.9598981357
 N          4.1929931577       -0.7151621570        0.6234394178
 S          4.2015682971        0.5319575151       -0.4814553084
 O          4.0525707572        0.0132541492       -1.8191837656
 O          5.4518123140        1.2162648837       -0.2179432051
 C          2.8515666260        1.6261908629       -0.0836819701
 C          2.6575632882        2.0025702456        1.2290760943
 C          1.6541942331        2.9097626110        1.5231335096
 C          0.8721951691        3.4303369108        0.5051817242
 C          1.0808937608        3.0429943936       -0.8078643668
 C          2.0781063774        2.1303868555       -1.1070290421
 H          2.2657823883        1.7946088734       -2.1145814584
 H          0.4680039097        3.4438071410       -1.6005225440
 H          0.0899643006        4.1364217137        0.7369361697
 H          1.4812738794        3.2047890972        2.5460198381
 H          3.2815560498        1.5870132525        2.0038434757
 H          4.8349996726       -0.5530051337        1.3844183657
 H          3.6516675528       -1.8545634169        2.9585014860
 H          1.5787042333       -3.0783014855        3.5065019552
 H         -0.2165465142       -3.2867952862        1.8264559818
 C         -0.2960115511       -2.3464155157       -0.6630044577
 H         -0.6085169012       -3.4038255527       -0.6713615591
 C          0.1032845154       -1.9988231494       -2.0892855941
 C         -0.9259275620       -1.6027829455       -3.1042487669
 C          0.0695181310       -0.5964141425       -2.6145932793
 H          0.8603830329       -0.2874130240       -3.2832749051
 H         -0.2651408672        0.1808051032       -1.9459943142
 H         -0.8276189772       -1.9814483157       -4.1105680967
 H         -1.9494083960       -1.5169912445       -2.7684703401
 H          0.9124482541       -2.6291720949       -2.4471210151
 O         -0.2989122613        0.3433071488        0.5112518944
