  62
        -98.94430543
 C         -2.0702361244       -1.3714706107        0.0082091733
 C         -2.3927273248       -0.4017776386       -0.9718300461
 C         -3.7539379241        0.1525590926       -0.9056785660
 C         -4.6043687738       -0.2783214904        0.0426615914
 C         -5.9949280739        0.2438186417        0.2552280536
 C         -6.0040992535        1.4079858900        1.2557601217
 C         -4.9651305903        2.4887332710        0.9560912525
 H         -5.0864500700        3.2733180029        1.7061964783
 H         -3.9647901732        2.0700863725        1.0902891357
 C         -5.0733485519        3.1023418702       -0.4469032958
 H         -4.9793287272        4.1871030322       -0.3623811874
 H         -6.0580527607        2.8947376566       -0.8672938196
 C         -3.9952606984        2.6377926976       -1.4279678374
 H         -4.0310918553        3.2898261139       -2.3049680688
 H         -3.0093090504        2.7586427358       -0.9712937049
 C         -4.1240275208        1.1925378657       -1.9259152099
 H         -5.1347092665        1.0217633382       -2.3017749997
 H         -3.4228270159        1.0636613538       -2.7555419828
 H         -7.0015343351        1.8512484777        1.2606994642
 H         -5.8043003947        1.0093786869        2.2530945827
 H         -6.6096734232       -0.5669985651        0.6497235527
 H         -6.4067068726        0.5674386433       -0.6986934068
 O         -4.2677159322       -1.2214313455        0.9576172960
 C         -3.0022056797       -1.7788848991        0.9698658955
 O         -2.8281835982       -2.6251760141        1.8690563196
 O         -1.6042281149       -0.0008480443       -1.8706124573
 C         -0.7098116559       -2.0472555464        0.1012672753
 C          0.3064244203       -1.1373400297        0.7494909426
 C          0.8421791266       -1.4432358811        1.9950452248
 C          1.7815195217       -0.6134889961        2.5827521081
 C          2.2079084845        0.5341283824        1.9392102745
 C          1.6768710010        0.8480863485        0.6944274237
 C          0.7391397514        0.0129584117        0.1049288101
 H          0.3193260415        0.2699297380       -0.8561434900
 N          2.1140748829        2.0060786273        0.0264300637
 S          3.7698423122        2.2301221068       -0.0814077343
 O          4.2543844826        2.8347361099        1.1349866375
 O          3.9794829459        2.9952024449       -1.2905017395
 C          4.4465074837        0.5867856214       -0.2468012278
 C          4.0448245096       -0.1771395054       -1.3248333707
 C          4.5242328534       -1.4709981984       -1.4440645648
 C          5.3914287876       -1.9775411650       -0.4881598173
 C          5.7899876295       -1.1958865656        0.5846927990
 C          5.3119763631        0.0987427866        0.7105549360
 H          5.5911746910        0.7390926288        1.5313289808
 H          6.4663587835       -1.5913307018        1.3252054075
 H          5.7579060567       -2.9875474559       -0.5819410698
 H          4.2160531496       -2.0799921301       -2.2786504781
 H          3.3710201122        0.2449033326       -2.0533168420
 H          1.6659523638        2.1457368028       -0.8676548712
 H          2.9350077872        1.1954229383        2.3823992422
 H          2.1860204725       -0.8626686729        3.5517816037
 H          0.5056941679       -2.3323680622        2.5082215829
 H         -0.8565454303       -2.9087084649        0.7657824610
 C         -0.2082524267       -2.5563028124       -1.2371573552
 C          0.8633613673       -3.6025786609       -1.2577510230
 C         -0.5372683586       -3.9554509358       -1.6579643032
 H         -0.7470893744       -4.1436198728       -2.7003107154
 H         -1.1273961105       -4.5556651046       -0.9805217986
 H          1.6181097596       -3.5505221028       -2.0268745326
 H          1.2261869465       -3.9650366495       -0.3080821139
 H         -0.1902644603       -1.7986806464       -2.0088731362
