  62
        -98.93811040
 C         -2.2381500446       -0.9309924841        0.3229683047
 C         -2.4264275577       -0.0366454462       -0.7562701268
 C         -3.2790859188        1.1363637370       -0.4884657163
 C         -3.7881005141        1.3085096666        0.7437368933
 C         -4.7209301064        2.3943299924        1.2038590889
 C         -6.1839135320        1.9317948887        1.0945526350
 C         -6.8362255228        2.1736303116       -0.2661979792
 H         -7.8130904297        1.6849248549       -0.2487452352
 H         -7.0081923617        3.2442210829       -0.3957255209
 C         -6.0490469002        1.6554932037       -1.4728482646
 H         -5.6483104257        0.6642394622       -1.2532465450
 H         -6.7476408292        1.5442488363       -2.3043718756
 C         -4.9129567556        2.5959217145       -1.9020607104
 H         -5.0401651539        3.5569326261       -1.4038434270
 H         -4.9909099329        2.7903076144       -2.9736545436
 C         -3.4921974612        2.0678695439       -1.6503042181
 H         -3.1536641693        1.5005366275       -2.5229224145
 H         -2.8083558013        2.9168934167       -1.5468643911
 H         -6.2165301751        0.8659469987        1.3350071199
 H         -6.7740223372        2.4544616335        1.8500985399
 H         -4.4917915302        2.5785424261        2.2556497628
 H         -4.5544807065        3.3092226015        0.6430513940
 O         -3.5459907653        0.4418950194        1.7670742433
 C         -2.7755645437       -0.6920840728        1.5862361822
 O         -2.6352950426       -1.3913347961        2.6115313794
 H          0.1136331325       -0.2724429634        1.2086968307
 C          0.6468480318       -0.7820539871        0.4142534417
 C          0.0100939440       -1.8067939306       -0.2752120907
 C          0.7122117661       -2.4637250643       -1.2768941689
 C          2.0068112920       -2.0852119310       -1.5888712496
 C          2.6283658568       -1.0515883770       -0.9134224126
 C          1.9407701127       -0.3965736011        0.1001784824
 N          2.5587326043        0.6630372925        0.7879987014
 S          4.0902714837        0.4065667741        1.4277044485
 O          4.2963105143       -0.9825736042        1.7665390590
 O          4.2108600414        1.3570860440        2.5118392885
 C          5.1883598521        0.8851839379        0.1107031622
 C          6.1533016507        0.0044119252       -0.3371679773
 C          7.0018420105        0.4034395536       -1.3582935735
 C          6.8715029895        1.6690739806       -1.9091028491
 C          5.8985733858        2.5425452198       -1.4459855349
 C          5.0478492767        2.1504523926       -0.4249140052
 H          4.2806835482        2.7986575812       -0.0350608259
 H          5.7997875022        3.5258231037       -1.8770044087
 H          7.5319376884        1.9771462556       -2.7042261187
 H          7.7588287579       -0.2738003392       -1.7197639682
 H          6.2129373920       -0.9716611928        0.1173509158
 H          1.9602659058        1.1050364637        1.4706323306
 H          3.6334135725       -0.7499913012       -1.1588198806
 H          2.5380684522       -2.6007792027       -2.3742001251
 H          0.2447929086       -3.2704837091       -1.8168843671
 C         -1.3957280273       -2.1786102632        0.1327936100
 H         -1.3414285975       -2.6616523314        1.1202551866
 C         -2.0766498752       -3.1242970989       -0.8350683964
 C         -1.8865737030       -4.6049547713       -0.7073622632
 C         -3.1979155907       -3.9828610585       -0.3350010980
 H         -4.0498266167       -4.1463352818       -0.9778007012
 H         -3.4507663613       -3.9061950220        0.7129724608
 H         -1.8415413642       -5.1989876902       -1.6076729068
 H         -1.2513379967       -4.9612954450        0.0896122298
 H         -2.1740972372       -2.7016661833       -1.8283044416
 O         -1.9148356719       -0.2088161448       -1.8928180402
