  62
        -98.94045118
 C         -2.4758397596       -1.2258381642       -0.0007267171
 C         -2.4308510049       -0.0069687614       -0.7187966654
 C         -3.7307703197        0.6299023758       -0.9773485318
 C         -4.8567262206        0.0299672646       -0.5492052115
 C         -6.2389698082        0.5965776723       -0.6934928631
 C         -6.6218024665        1.4423742156        0.5292308822
 C         -5.5595629313        2.4664100299        0.9291726367
 H         -5.9501748631        3.0236832506        1.7833259532
 H         -4.6655997807        1.9394466724        1.2707428376
 C         -5.1711377544        3.4468187381       -0.1862598045
 H         -5.1312784874        4.4550240514        0.2313179792
 H         -5.9369800600        3.4475265452       -0.9626361686
 C         -3.8065884403        3.1750058420       -0.8226224394
 H         -3.5378838349        4.0397599692       -1.4353639520
 H         -3.0474649888        3.0805138298       -0.0415698402
 C         -3.7248747264        1.9351307592       -1.7221697628
 H         -4.5280779322        1.9622213620       -2.4614761243
 H         -2.7680473622        1.9720884703       -2.2517905388
 H         -6.7865095449        0.7718977448        1.3757495795
 H         -7.5608493721        1.9550860413        0.3136555313
 H         -6.2849559404        1.2019138095       -1.5965389983
 H         -6.9424124690       -0.2325178335       -0.7854575032
 O         -4.8594664718       -1.1521631303        0.1184500162
 C         -3.6741898132       -1.8023468876        0.4195903488
 O         -3.8164371356       -2.8651576303        1.0572378456
 H          1.4874128782       -1.3885499023       -0.1128136861
 C          1.0734645172       -0.8693400835        0.7341827626
 C         -0.2552935220       -1.0413695105        1.0877634944
 C         -0.7463051571       -0.3556738646        2.1963468760
 C          0.0659827650        0.4996215420        2.9139877964
 C          1.3844666289        0.6911759342        2.5397529395
 C          1.8903076279       -0.0008326180        1.4462603473
 N          3.2442893913        0.1403035446        1.0860305079
 S          3.6848735146        0.2704131392       -0.5395018766
 O          3.0568157634        1.4256021657       -1.1423117725
 O          3.4748066749       -0.9949332559       -1.1939395469
 C          5.4346053496        0.5588428539       -0.3445393495
 C          6.2548767903       -0.5224410477       -0.0840784392
 C          7.6112456484       -0.3059438532        0.0987889497
 C          8.1224268866        0.9811336710        0.0196377383
 C          7.2874935416        2.0561777280       -0.2448074142
 C          5.9295105964        1.8463249273       -0.4275859647
 H          5.2441564814        2.6501735525       -0.6440391974
 H          7.6880782016        3.0550353477       -0.3094404080
 H          9.1786432834        1.1469574551        0.1618528327
 H          8.2639874678       -1.1396175201        0.3016696419
 H          5.8140158294       -1.5045380008       -0.0399452020
 H          3.6944064417        0.8803527101        1.6097579808
 H          2.0167467172        1.3693827288        3.0930203772
 H         -0.3313242346        1.0297541449        3.7667821288
 H         -1.7807039165       -0.4980908767        2.4806444595
 C         -1.1864290405       -1.9556608444        0.3291706812
 H         -1.4673027479       -2.7870420415        0.9929638208
 C         -0.5752837078       -2.5281802876       -0.9325172490
 C          0.2671830186       -3.7653594506       -0.8686981774
 C         -1.1021391128       -3.8213781485       -1.4747447147
 H         -1.1911025796       -3.9334712878       -2.5449093089
 H         -1.8905290219       -4.3056576323       -0.9166707125
 H          1.1252166973       -3.8344160832       -1.5205882274
 H          0.4108391068       -4.2210389340        0.0994090768
 H         -0.2994931973       -1.7609917266       -1.6484582170
 O         -1.3624224515        0.5252534133       -1.1218212006
