  62
        -98.94347827
 C          1.8357853741        0.8275359887       -0.7023944736
 C          2.0874109364        0.0869956377        0.4777242650
 C          3.4967245515        0.0023300781        0.8884952784
 C          4.4364524736        0.6289335432        0.1570844895
 C          5.9105890182        0.5853864562        0.4357029342
 C          6.5838286170       -0.5755805060       -0.3095006720
 C          5.8719393134       -1.9168396427       -0.1337858195
 H          4.8897755119       -1.8633467679       -0.6088455510
 H          6.4516006958       -2.6660843987       -0.6773184407
 C          5.7045283906       -2.3595838766        1.3265156910
 H          5.9716400532       -3.4155715969        1.4048631245
 H          6.3935458384       -1.8037760971        1.9635071959
 C          4.2826346545       -2.2175561652        1.8728176937
 H          4.2287176187       -2.7550830266        2.8232135129
 H          3.5778115437       -2.6935618698        1.1867661535
 C          3.8075398183       -0.7822368938        2.1320774129
 H          2.8685761178       -0.8378801218        2.6906517359
 H          4.5418362588       -0.2568611359        2.7462037608
 H          6.6058689048       -0.3363586456       -1.3752388499
 H          7.6142076299       -0.6591489571        0.0409517609
 H          6.3517797905        1.5253888935        0.0998348654
 H          6.0693723977        0.4837397816        1.5075348449
 O          4.1517720052        1.3472061985       -0.9599013368
 C          2.8499222898        1.4602712175       -1.4199781256
 O          2.7261880430        2.1456006082       -2.4558369383
 H         -2.1034653173        0.2284837878       -0.3665285593
 C         -1.7180961286        1.0862285956        0.1576461071
 C         -0.4633420185        1.5860692090       -0.1515599019
 C         -0.0060655120        2.7094167503        0.5330757755
 C         -0.7770398927        3.3003724997        1.5144104282
 C         -2.0264388330        2.7929716067        1.8260076424
 C         -2.4983254728        1.6807321393        1.1407492327
 N         -3.7471099297        1.1278827380        1.4519863087
 S         -4.7030356231        0.4304090671        0.2751581587
 O         -4.6169548864        1.1433212781       -0.9782886245
 O         -6.0201451267        0.3654271816        0.8728682414
 C         -4.0726300917       -1.2239730900        0.0841137515
 C         -4.1373539824       -1.8157849050       -1.1620060624
 C         -3.6796774115       -3.1153403684       -1.3132638883
 C         -3.1674089287       -3.7972046640       -0.2204808084
 C         -3.1131749684       -3.1900364831        1.0248464129
 C         -3.5732547791       -1.8926539941        1.1838762904
 H         -3.5368019485       -1.3913864859        2.1365618941
 H         -2.7096747580       -3.7213264424        1.8718145619
 H         -2.8063915886       -4.8065256736       -0.3406471119
 H         -3.7213432271       -3.5891366813       -2.2813397810
 H         -4.5316743391       -1.2439064307       -1.9871662853
 H         -4.2876022457        1.6312043624        2.1393901096
 H         -2.6285265341        3.2516909320        2.5955312118
 H         -0.4050130215        4.1667037257        2.0407357150
 H          0.9691372059        3.1090058474        0.2886011237
 C          0.4131895286        0.9659025440       -1.2125802972
 H          0.4589535320        1.6619319885       -2.0634931950
 C         -0.0922054466       -0.3744139141       -1.7056774707
 C         -1.1155924841       -0.4436833579       -2.7976844273
 C          0.3034673737       -0.8376259063       -3.0742617142
 H          0.5291275669       -1.8831334228       -3.2202949648
 H          0.9163220262       -0.1714683503       -3.6643815244
 H         -1.8631437320       -1.2210608447       -2.7513713654
 H         -1.4770972717        0.4885149479       -3.2055196500
 H         -0.1349073075       -1.1176846786       -0.9174179978
 O          1.1852836573       -0.4717325847        1.1534561683
