  62
        -98.94021481
 C         -1.5615333380       -1.4422937542        0.3791205653
 C         -1.5468249244       -0.4110879352       -0.5878762539
 C         -2.4636326065        0.7227429189       -0.3561540758
 C         -3.2393992528        0.7385482738        0.7435820263
 C         -4.2173666956        1.7729711785        1.2602378845
 C         -4.7298873535        2.8886012931        0.3528658557
 C         -5.6164488813        2.4192296676       -0.8004176036
 H         -5.8355434012        3.2805829035       -1.4352581116
 H         -6.5632749957        2.0618625418       -0.3876601855
 C         -5.0407400516        1.2993042922       -1.6638534136
 H         -5.7755033546        1.0639872115       -2.4387002528
 H         -4.9133979983        0.3986618447       -1.0596581370
 C         -3.7200874569        1.6217132509       -2.3603618082
 H         -3.8261230174        2.5382497878       -2.9440894051
 H         -3.5078279592        0.8056540762       -3.0565416222
 C         -2.5009262530        1.7694706807       -1.4334245659
 H         -2.4519254823        2.7692192678       -1.0082594207
 H         -1.6002881522        1.6259734698       -2.0378566392
 H         -3.9019997655        3.4837181025       -0.0213140940
 H         -5.3325162140        3.5485183026        0.9828279467
 H         -5.0709470044        1.2063428216        1.6454277364
 H         -3.7346693709        2.2300042242        2.1311269436
 O         -3.1999984679       -0.2703170751        1.6619157161
 C         -2.3817049941       -1.3717522790        1.5078808075
 O         -2.4732610222       -2.2100025609        2.4255062399
 H          1.1987695981       -1.7657493009       -1.5169219499
 C          1.5602549039       -1.7443835048       -0.5015779865
 C          0.7554429428       -2.2068052463        0.5276725529
 C          1.2378292297       -2.1406040919        1.8316454733
 C          2.4938343434       -1.6253076262        2.0954335099
 C          3.2822031405       -1.1347922770        1.0686101672
 C          2.8001897744       -1.1825259239       -0.2323847561
 N          3.5553047289       -0.6083245739       -1.2723420832
 S          4.1238952687        0.9408336256       -0.9823322303
 O          4.1259081738        1.6027977368       -2.2687354728
 O          5.4073253644        0.8581977210       -0.3278354572
 C          2.9527130276        1.7163868230        0.1249278818
 C          3.4305112985        2.3365265035        1.2622070519
 C          2.5341839743        2.9395625174        2.1293869268
 C          1.1769681369        2.9049094597        1.8503143150
 C          0.7125429777        2.2787180379        0.7044150005
 C          1.6045384136        1.6827858537       -0.1727701024
 H          1.2475501110        1.1855159093       -1.0611612845
 H         -0.3437779516        2.2350998366        0.4893918524
 H          0.4749062943        3.3644913460        2.5281317296
 H          2.8945371113        3.4274099591        3.0206983646
 H          4.4924478631        2.3266258577        1.4473157026
 H          3.0884752260       -0.6489635539       -2.1676034546
 H          4.2534350655       -0.7051559614        1.2553247246
 H          2.8576176384       -1.5895461417        3.1108577883
 H          0.6061432202       -2.4827460137        2.6393282870
 C         -0.6597493086       -2.6640992658        0.2743064022
 H         -0.9578058284       -3.3275368068        1.0962695855
 C         -0.8404044684       -3.4024909102       -1.0354934722
 C         -0.2934842463       -4.7908423724       -1.1704119241
 C         -1.7739607762       -4.5725145405       -1.0922445039
 H         -2.3652170847       -4.7167676513       -1.9842282634
 H         -2.2848058832       -4.8501985132       -0.1817006789
 H          0.2022732011       -5.2157543796       -0.3106789936
 H          0.1338054828       -5.0888043333       -2.1156699440
 H         -0.8081700725       -2.7596696058       -1.9057441650
 O         -0.8080953782       -0.4109653006       -1.6081304374
