  62
        -98.93723442
 C         -1.9003922707       -1.2935442699       -0.3572374809
 C         -1.8908114210       -0.0085168102        0.2342665898
 C         -3.1666031810        0.4495873591        0.8118691202
 C         -4.2391419508       -0.3591147411        0.7733424599
 C         -5.6178069508       -0.1104930718        1.3319088202
 C         -6.2361394212        1.2752245682        1.0959291010
 C         -5.8247123815        1.9575495390       -0.2170150387
 H         -5.3178818614        1.2430819595       -0.8679499291
 H         -6.7236713417        2.2915816591       -0.7385950984
 C         -4.9273899318        3.1787374791       -0.0003615681
 H         -5.3228386519        3.7583404786        0.8367152023
 H         -4.9783337721        3.8127727096       -0.8888384578
 C         -3.4516037117        2.8740746194        0.2548305716
 H         -2.9555392019        3.8127464194        0.5131619820
 H         -2.9866839617        2.5053539100       -0.6633594287
 C         -3.1714415213        1.8462476888        1.3633701610
 H         -2.1616627213        2.0247240489        1.7433702209
 H         -3.8739308813        1.9526434482        2.1863680711
 H         -5.9874485313        1.9314733478        1.9289652713
 H         -7.3194175112        1.1439748079        1.1136916211
 H         -5.5917152006       -0.3120093724        2.4068582301
 H         -6.2508010207       -0.8762339517        0.8770856198
 O         -4.1951983005       -1.6020605908        0.2136028492
 C         -3.0400721105       -2.0946378902       -0.3695179912
 O         -3.1524419202       -3.2408000099       -0.8512135718
 O         -0.8695260211        0.7215847700        0.2861770101
 C         -0.6433374706       -1.8342506592       -1.0114234813
 C          0.5043699895       -1.8737020294       -0.0313370215
 C          0.2718904898       -2.2572412702        1.2863832283
 C          1.3010422799       -2.2951736904        2.2079718482
 C          2.5923732397       -1.9660631699        1.8340437882
 C          2.8395650495       -1.5996813891        0.5190953684
 C          1.8023006294       -1.5572110189       -0.4052350215
 H          2.0148403992       -1.2670109983       -1.4227962613
 N          4.1595090694       -1.2694030086        0.1391741684
 S          4.7834258290        0.1675197913        0.7367902391
 O          6.1443972290        0.2353416219        0.2550630490
 O          4.6053593892        0.1930887205        2.1652621592
 C          3.8078845586        1.4386952415       -0.0465132301
 C          2.4962992686        1.6093673409        0.3491082602
 C          1.7090989283        2.5325332711       -0.3208131992
 C          2.2477884580        3.2720215818       -1.3623729589
 C          3.5703269080        3.0958088023       -1.7422731491
 C          4.3573073083        2.1631497922       -1.0866765197
 H          5.3862483183        1.9844308626       -1.3546263299
 H          3.9856534877        3.6749828229       -2.5515121689
 H          1.6305984577        3.9883279519       -1.8820362284
 H          0.6742631283        2.6347129906       -0.0363527390
 H          2.0943753389        1.0234332103        1.1596870099
 H          4.3042226193       -1.2939881980       -0.8612470016
 H          3.4037733998       -1.9711047701        2.5430534381
 H          1.0972745801       -2.5856285410        3.2278105381
 H         -0.7349658201       -2.5173506906        1.5845467583
 H         -0.8748261704       -2.8688926791       -1.3056386519
 C         -0.3317778710       -1.0286036884       -2.2577722709
 C          0.3034335791       -1.6788589076       -3.4492485914
 C         -1.1387776311       -1.2745307480       -3.4956898410
 H         -1.4205708314       -0.4297698377       -4.1060699605
 H         -1.8906518608       -2.0493418782       -3.4495641813
 H          1.0108404888       -1.1087842271       -4.0330882411
 H          0.5294814893       -2.7327761676       -3.3855263720
 H         -0.0639669912       -0.0028350085       -2.0298792404
