  62
        -98.93524271
 C         -2.3733315696       -0.6340589505       -0.0354877896
 C         -2.3912715992        0.4146340692        0.9095658907
 C         -2.2440866389        1.7844883993        0.3869296211
 C         -2.0861132691        1.9618340297       -0.9372023889
 C         -1.8968502288        3.2503609998       -1.6963413585
 C         -0.8521944685        4.2193253694       -1.1202216884
 C         -1.4654141981        5.4932748694       -0.5370820479
 H         -0.7055113179        6.2777090992       -0.5366055178
 H         -2.2733315281        5.8205363198       -1.1946962178
 C         -1.9959304880        5.3639940591        0.8894486721
 H         -1.1540514479        5.2788652487        1.5801540120
 H         -2.5234130177        6.2898238392        1.1308378024
 C         -2.9394413682        4.1847034193        1.1364086119
 H         -3.6203045684        4.0539870497        0.2966471019
 H         -3.5506660481        4.4258407392        2.0087671320
 C         -2.2130984185        2.8648981390        1.4339721614
 H         -1.1658580185        3.0605686887        1.6889563313
 H         -2.6507938685        2.3979132889        2.3225234213
 H         -0.2482645885        3.7039037790       -0.3732303686
 H         -0.1795772685        4.5066162095       -1.9300872384
 H         -1.6050320590        2.9451406501       -2.7034425987
 H         -2.8627247187        3.7530198601       -1.7856539183
 O         -2.1002477494        0.9206348099       -1.8173508192
 C         -2.2013618997       -0.3928794902       -1.3974151296
 O         -2.1374596100       -1.2336248799       -2.3151676898
 H          0.0255582904       -0.9656416813        0.4702691800
 C          0.0728002101       -2.0046974312        0.1785393797
 C         -1.0971309601       -2.7509280109        0.1118444096
 C         -1.0063790905       -4.0911950908       -0.2406469308
 C          0.2247567893       -4.6557245310       -0.5299672811
 C          1.3822720295       -3.9019138713       -0.4866254110
 C          1.3012034099       -2.5562137914       -0.1399921006
 N          2.4493042701       -1.7480193217       -0.1531169205
 S          2.4427955506       -0.1840437619        0.4555555299
 O          2.1496692507       -0.1839509322        1.8736318400
 O          1.6049867707        0.6443212986       -0.3749529397
 C          4.1558913206        0.2345168877        0.1932743698
 C          4.5529509206        0.6212722380       -1.0727628101
 C          5.8882493406        0.9172877277       -1.2955765602
 C          6.7998843907        0.8217964472       -0.2544404103
 C          6.3865507708        0.4351218369        1.0114190196
 C          5.0523145507        0.1367319472        1.2404209797
 H          4.6827582608       -0.1592955030        2.2090147997
 H          7.0966087709        0.3650708365        1.8195132895
 H          7.8384587208        1.0531360170       -0.4305527504
 H          6.2118851006        1.2211560179       -2.2779458401
 H          3.8060213605        0.6889974084       -1.8467929000
 H          3.3092100000       -2.2424998420        0.0344260792
 H          2.3378654394       -4.3407626415       -0.7275916513
 H          0.2815101590       -5.6993322710       -0.7998825314
 H         -1.8991881707       -4.6927525106       -0.2914652709
 C         -2.4027720499       -2.0698795507        0.4516135000
 H         -2.4773817998       -2.0061186210        1.5486051100
 C         -3.6161707002       -2.8041961902       -0.0797616001
 C         -4.2687591403       -3.8815551203        0.7328284297
 C         -4.9485327600       -2.5577837300        0.5603248601
 H         -5.8214748201       -2.5007634496       -0.0721765497
 H         -4.9739130098       -1.8808920903        1.4019872603
 H         -4.6799112706       -4.7369546400        0.2183123595
 H         -3.8428678303       -4.1071952606        1.6989318296
 H         -3.5910670103       -2.9159230199       -1.1577512401
 O         -2.5198860291        0.2146624289        2.1506941406
