  62
        -98.93691282
 C          1.4396851532        1.5076418018        0.1491965856
 C          2.5734938293        1.0752776663        0.8758684739
 C          3.3192786428       -0.0807693575        0.3392191503
 C          2.8532976782       -0.6900743387       -0.7667070904
 C          3.4116675815       -1.9023877944       -1.4641727422
 C          3.1107145576       -3.2161197438       -0.7226858838
 C          3.2708489841       -3.1552514764        0.7941512880
 H          2.6413349700       -2.3561824980        1.1907293622
 H          2.8972956232       -4.0963566760        1.2068473386
 C          4.7027739157       -2.9651672629        1.2881591322
 H          4.6799231469       -3.0075273860        2.3803090273
 H          5.3161351367       -3.7982833595        0.9373314189
 C          5.3795831377       -1.6570494509        0.8760310449
 H          5.6903313163       -1.6895408688       -0.1646935767
 H          6.2934262018       -1.5621503792        1.4699249032
 C          4.5553696234       -0.4015393971        1.1445819763
 H          4.2397952700       -0.3987080114        2.1943388275
 H          5.2105102985        0.4723897458        1.0403930851
 H          2.0757500370       -3.4972103527       -0.9311214923
 H          3.7571237380       -3.9970327826       -1.1265979275
 H          2.9411659211       -1.9418819182       -2.4489035582
 H          4.4804636658       -1.7808610994       -1.6155052418
 O          1.7244109896       -0.2722967288       -1.4048731093
 C          0.9938790583        0.8274943882       -0.9859397095
 O          0.0007648948        1.0755669503       -1.6903026613
 H         -0.4580148248        0.5625765631        1.8112581556
 C         -1.2102454516        1.1754155817        1.3284040553
 C         -0.8191691919        2.3485553376        0.6932679541
 C         -1.7933240881        3.1194072770        0.0747139536
 C         -3.1183265990        2.7171812892        0.0864763544
 C         -3.4998851956        1.5422089598        0.7062392318
 C         -2.5318761612        0.7627639217        1.3269176845
 N         -2.9024916971       -0.4522704573        1.9404422558
 S         -3.6781826512       -1.5727302402        0.9626451482
 O         -5.0389761056       -1.1473088533        0.7520706791
 O         -3.5071472116       -2.8411223481        1.6364291651
 C         -2.7859255682       -1.5616884673       -0.5794137579
 C         -3.2662356934       -0.8248283163       -1.6421120676
 C         -2.5317425166       -0.7869389726       -2.8155123851
 C         -1.3374932726       -1.4824959723       -2.9057796718
 C         -0.8711762608       -2.2215371188       -1.8307166283
 C         -1.5955322500       -2.2569782751       -0.6516194109
 H         -1.2639372657       -2.8213137106        0.2063924375
 H          0.0628921390       -2.7554200138       -1.9053852210
 H         -0.7603831494       -1.4420503901       -3.8158109564
 H         -2.8859871050       -0.2060368281       -3.6514986984
 H         -4.2012832567       -0.3003146247       -1.5338012750
 H         -2.1355180133       -0.9011697018        2.4209654646
 H         -4.5242821748        1.2063819841        0.7095829683
 H         -3.8639949924        3.3246824854       -0.4034505986
 H         -1.5146870955        4.0236741833       -0.4403034897
 C          0.6511616265        2.6851573857        0.6943453652
 H          0.9793598330        2.7718155727        1.7442765921
 C          0.9701664040        4.0168922317        0.0322728135
 C          2.2930110218        4.2530778429       -0.6314809527
 C          1.0456095631        4.1701664614       -1.4563274558
 H          0.6643537088        5.0794530262       -1.8976651638
 H          0.8800728057        3.2893044241       -2.0560258289
 H          2.7657374798        5.2154275982       -0.5034369705
 H          2.9889567151        3.4276377578       -0.6708593357
 H          0.5597258764        4.8542237233        0.5884331705
 O          2.9509031629        1.6251919826        1.9468605291
