  62
        -98.94421934
 C          1.4282769556        1.5435104628       -0.9453095340
 C          2.6453839389        1.2892965318       -0.2615055537
 C          3.3162886991        0.0234684641       -0.5672589722
 C          2.7805381827       -0.8084480391       -1.4779945702
 C          3.3235275393       -2.1518485874       -1.8809546765
 C          2.8908608006       -3.2824250966       -0.9369639033
 C          3.5995964747       -3.2993372448        0.4181006121
 H          3.3870271307       -4.2667995507        0.8776641288
 H          4.6784257983       -3.2379840832        0.2674641707
 C          3.1448359637       -2.1915023928        1.3789883689
 H          2.1819352451       -1.7947515584        1.0458789704
 H          2.9796340900       -2.6185993947        2.3716414995
 C          4.1402710741       -1.0418633793        1.5430246940
 H          5.0498815795       -1.4127754634        2.0218689922
 H          3.6907825045       -0.2952271830        2.2032084414
 C          4.5286280810       -0.3421168735        0.2341420519
 H          5.0541821944        0.5830306933        0.4843167470
 H          5.1944286047       -0.9774172631       -0.3496555741
 H          3.0915798940       -4.2299175095       -1.4430920156
 H          1.8120996733       -3.2083337642       -0.7747601259
 H          4.4119178892       -2.1130619513       -1.9354399951
 H          2.9303199279       -2.3635027806       -2.8776442969
 O          1.6512265967       -0.5027952336       -2.1618047904
 C          0.9107171747        0.6385795954       -1.8712902978
 O         -0.1476190850        0.7147156368       -2.5236047620
 O          3.1433172402        2.0905872427        0.5755541400
 C          0.6605508791        2.7751603849       -0.4922612327
 C         -0.0469967954        2.4244470727        0.7944912088
 C          0.0461012568        3.2238964366        1.9256999608
 C         -0.5356619888        2.8188669025        3.1152517879
 C         -1.1919685880        1.6051533050        3.2032727987
 C         -1.2971727836        0.7997583335        2.0721108648
 C         -0.7564529344        1.2337859162        0.8732075363
 H         -0.8356283632        0.6097787091       -0.0005125937
 N         -1.9505652142       -0.4348165699        2.1337191578
 S         -1.6625481485       -1.7106440011        1.0854511143
 O         -1.9507897277       -2.8847758652        1.8841992462
 O         -0.3476923572       -1.6545111191        0.4955357932
 C         -2.9566407474       -1.5269442863       -0.1243995192
 C         -4.2273894165       -1.9053605755        0.2691869253
 C         -5.2803302245       -1.7617515958       -0.6176638137
 C         -5.0484132712       -1.2411987693       -1.8825571326
 C         -3.7694317217       -0.8693796854       -2.2633318147
 C         -2.7091430823       -1.0116182170       -1.3796134072
 H         -1.7106422367       -0.7199100363       -1.6680784431
 H         -3.5784354083       -0.4631041779       -3.2437697407
 H         -5.8667339853       -1.1266938479       -2.5758701222
 H         -6.2751684758       -2.0543261314       -0.3227069619
 H         -4.3587711161       -2.3180954434        1.2556783613
 H         -2.1940736142       -0.7504980159        3.0599134289
 H         -1.6123284965        1.2742097644        4.1406446640
 H         -0.4547642965        3.4440306371        3.9916392825
 H          0.6014718762        4.1489615995        1.8788978485
 H          1.4299021730        3.5259095332       -0.2486998786
 C         -0.2543509270        3.3809589011       -1.5423274157
 C         -1.7441720628        3.2442133847       -1.5082405581
 C         -1.1091531032        4.5631225296       -1.1915018994
 H         -1.1976770962        5.3668506255       -1.9064178876
 H         -1.1139266514        4.8835795912       -0.1605750823
 H         -2.2542652308        3.1226316500       -2.4511432338
 H         -2.1868515746        2.6817926127       -0.7007786057
 H          0.2041540493        3.3837447939       -2.5253415740
