  62
        -98.94136543
 C         -1.2240965559       -0.8337332084        0.4664966154
 C         -2.0875427152       -0.5955135061       -0.6277189096
 C         -3.0291548618        0.5284079820       -0.4811251982
 C         -2.9870933952        1.2869241041        0.6273946302
 C         -3.8108257706        2.5049166141        0.9648967097
 C         -5.3093536921        2.4628071162        0.6365554618
 C         -5.9629603658        1.0790816759        0.7653461398
 H         -5.2818692164        0.3899178608        1.2673505181
 H         -6.8564285535        1.1657302076        1.3863330207
 C         -6.3828868400        0.4894854303       -0.5831461470
 H         -6.8460538547        1.2777530291       -1.1805073919
 H         -7.1410342729       -0.2779624409       -0.4099564950
 C         -5.2605295990       -0.1578642958       -1.3934568341
 H         -4.9407376400       -1.0842875749       -0.9089362737
 H         -5.6651087451       -0.4302608882       -2.3711319368
 C         -4.0095407630        0.7110538223       -1.6038815873
 H         -3.5008169813        0.3575993596       -2.5051471141
 H         -4.2724133760        1.7569286574       -1.7437445857
 H         -5.4715679436        2.8403988884       -0.3720133479
 H         -5.7994076504        3.1625784314        1.3157253486
 H         -3.6755599777        2.6497173318        2.0396953295
 H         -3.3562157160        3.3669831262        0.4670326554
 O         -2.1028064381        1.0504051386        1.6380347489
 C         -1.2007533456        0.0031391526        1.5800499026
 O         -0.4402554588       -0.0780179661        2.5675101991
 H          0.8231151126        0.3773420740       -0.3057260017
 C          1.2354338392       -0.4263397872       -0.8958521923
 C          0.7831940332       -1.7232227477       -0.6977686347
 C          1.3053688018       -2.7343316524       -1.4947489852
 C          2.2457129838       -2.4407432598       -2.4674948355
 C          2.7050952094       -1.1486451034       -2.6492882894
 C          2.1922197837       -0.1313028745       -1.8527247781
 N          2.6274426977        1.1958422591       -1.9888510988
 S          2.7773222560        2.1503138713       -0.6227163346
 O          1.4806806563        2.5786592614       -0.1597702358
 O          3.6794969249        3.2075072471       -1.0289374640
 C          3.5845211708        1.1023523937        0.5749339001
 C          4.9127718234        0.7964867494        0.3436431206
 C          5.5707786259       -0.0537734900        1.2158396333
 C          4.8904500158       -0.5890156572        2.2996350699
 C          3.5608753852       -0.2684011917        2.5211516789
 C          2.8968213394        0.5858237532        1.6534958211
 H          1.8603961364        0.8416893381        1.8118739436
 H          3.0225312283       -0.6777634233        3.3613486869
 H          5.3987088131       -1.2562045636        2.9777482273
 H          6.6070548858       -0.2989540484        1.0483082088
 H          5.4087845475        1.2427596446       -0.5029466743
 H          3.3945564079        1.3311827736       -2.6306928705
 H          3.4436089806       -0.9250705017       -3.4035362205
 H          2.6350773676       -3.2332682649       -3.0881192097
 H          0.9707742743       -3.7497368371       -1.3597035842
 C         -0.2157996069       -1.9655457746        0.4091715764
 H          0.3348337902       -1.9266063039        1.3617014370
 C         -0.9174427987       -3.3040535147        0.3067646050
 C         -0.3102920459       -4.5257212385        0.9265929571
 C         -1.5229249883       -3.8971707815        1.5424617621
 H         -2.4709406753       -4.4070799292        1.4591548968
 H         -1.4039039912       -3.3472912041        2.4651643525
 H         -0.4282660097       -5.4727388481        0.4218815679
 H          0.6325954990       -4.4112148877        1.4395894651
 H         -1.4649222644       -3.4156161051       -0.6217377826
 O         -2.0710528625       -1.2795415657       -1.6841828816
