  62
        -98.94491465
 C          1.9585290404        0.8542624204        0.0722439740
 C          2.2607934169       -0.1086140734        1.0623471003
 C          2.3689637583       -1.4968628723        0.5979088722
 C          2.1456522040       -1.7739840536       -0.6999325630
 C          2.2568929643       -3.1387634374       -1.3151391134
 C          3.6737720545       -3.3987203359       -1.8461893224
 C          4.7785110707       -3.0720369578       -0.8413850321
 H          5.7314511515       -3.3195737985       -1.3137726702
 H          4.7809097775       -1.9959310605       -0.6539090760
 C          4.6607082844       -3.8179532863        0.4949773758
 H          3.9985247144       -4.6770257988        0.3824902421
 H          5.6455597005       -4.2000823296        0.7711975947
 C          4.1753769800       -2.9554981334        1.6615066844
 H          4.3327832683       -3.5148537343        2.5874880581
 H          4.7787066552       -2.0462810216        1.7210022529
 C          2.6968393583       -2.5480017955        1.6210553394
 H          2.4440475532       -2.1081715590        2.5905964156
 H          2.0718457831       -3.4321003050        1.4763357573
 H          3.7443194639       -4.4474402670       -2.1402362224
 H          3.8265739437       -2.7838831447       -2.7360278831
 H          1.5471972849       -3.1969795227       -2.1423413613
 H          1.9912727046       -3.8873064919       -0.5708667083
 O          1.8405793715       -0.8245924054       -1.6207100581
 C          1.7266021813        0.5080049454       -1.2590744947
 O          1.4358037379        1.2739415233       -2.1983818897
 O          2.4304501688        0.1810372622        2.2793279162
 C          1.7809865434        2.3046384226        0.4821393878
 C          0.3791775006        2.7532629405        0.1473403016
 C          0.0829445482        3.9865120086       -0.4183907106
 C         -1.2245385187        4.3150005552       -0.7335542295
 C         -2.2556620040        3.4233023779       -0.5050618913
 C         -1.9715396647        2.1944239555        0.0812277689
 C         -0.6669038264        1.8806281404        0.4202099631
 H         -0.4591909958        0.9214324551        0.8734146455
 N         -2.9955031230        1.2690222671        0.3541584766
 S         -2.6349142037       -0.3762992613        0.2215506877
 O         -2.0113600777       -0.8147339737        1.4462637985
 O         -1.9113736676       -0.6431345279       -1.0013579777
 C         -4.2856842062       -1.0458349162        0.1261336958
 C         -5.0219924303       -1.1533057820        1.2911432613
 C         -6.3183756483       -1.6378899070        1.2218897203
 C         -6.8542535821       -2.0047006365       -0.0038894849
 C         -6.1026360285       -1.8936139813       -1.1639070017
 C         -4.8057485059       -1.4075516870       -1.1019189313
 H         -4.1806693068       -1.3084599749       -1.9751057804
 H         -6.5201034724       -2.1823687237       -2.1149942844
 H         -7.8631644833       -2.3823080955       -0.0552570381
 H         -6.9046089167       -1.7280619490        2.1220228663
 H         -4.5584075990       -0.8647208026        2.2199651356
 H         -3.8584115684        1.4934631060       -0.1233116239
 H         -3.2705771354        3.6715610108       -0.7758656655
 H         -1.4403569487        5.2729904713       -1.1817179353
 H          0.8770714834        4.6848209135       -0.6261807170
 H          1.8959479103        2.3167384908        1.5769862544
 C          2.8581336790        3.1734327752       -0.1330826459
 C          3.3395942528        4.4019612091        0.5778857802
 C          4.2182841359        3.1912948772        0.4955886016
 H          5.0837314946        3.2213351730       -0.1491455977
 H          4.3576668094        2.5962288847        1.3864867798
 H          3.6062679460        5.2667944946       -0.0106150122
 H          2.8898807064        4.6357668016        1.5309746323
 H          2.8060445046        3.1907427989       -1.2160499998
