  62
        -98.94824895
 C          1.3306154211        1.1759858937       -0.0350412482
 C          2.0951191817        0.5929059773        1.0032204933
 C          2.6313399860       -0.7474373227        0.7340166966
 C          2.3451032312       -1.3476563032       -0.4356218581
 C          2.8487535850       -2.6979321596       -0.8541265340
 C          4.1741859917       -2.5866530807       -1.6207613375
 C          5.2193293025       -1.7161468196       -0.9233403674
 H          4.8656705822       -0.6829004429       -0.9015610247
 H          6.1217578563       -1.7350987629       -1.5380224344
 C          5.5644406985       -2.1614528100        0.5045056356
 H          6.6492065399       -2.1367006921        0.6274297724
 H          5.2441720044       -3.1924252950        0.6592258247
 C          4.9722490541       -1.2787439982        1.6048208646
 H          5.2120250086       -0.2315266521        1.4037081521
 H          5.4493935526       -1.5476259290        2.5510607537
 C          3.4562823953       -1.3941703430        1.8103607209
 H          3.2029267195       -0.8694961495        2.7366933872
 H          3.1768205787       -2.4435300415        1.9295434555
 H          3.9701298845       -2.1558157907       -2.6034642658
 H          4.5734085567       -3.5919955907       -1.7660985127
 H          2.9769007700       -3.3196499493        0.0300329399
 H          2.1001020501       -3.1574634944       -1.5018921612
 O          1.5906572470       -0.7658306292       -1.4013385767
 C          1.0661766239        0.5091684393       -1.2301823775
 O          0.3961566203        0.9191552050       -2.1962548249
 H         -0.7771352623        0.8162894743        1.5429389525
 C         -1.3900657308        1.4587623206        0.9264999507
 C         -0.7894614789        2.4354109590        0.1398173592
 C         -1.6000308679        3.2559471560       -0.6334854319
 C         -2.9738035837        3.0855242107       -0.6311700329
 C         -3.5643165067        2.0957516003        0.1322379825
 C         -2.7633985238        1.2756956825        0.9196261472
 N         -3.3329312243        0.2677967618        1.7231820324
 S         -2.7934047572       -1.3078870714        1.5662993405
 O         -3.7300990484       -2.0924404372        2.3409953838
 O         -1.4082045422       -1.4012666466        1.9498561889
 C         -2.9868508220       -1.6775552410       -0.1655806199
 C         -4.1542551074       -2.2669149840       -0.6108621244
 C         -4.3170761723       -2.4834329526       -1.9696705566
 C         -3.3232878974       -2.0954269986       -2.8566366322
 C         -2.1594796143       -1.5009270952       -2.3939294879
 C         -1.9879260085       -1.2925190214       -1.0352699821
 H         -1.0931693581       -0.8345847927       -0.6450664049
 H         -1.3810380701       -1.1810148849       -3.0689152690
 H         -3.4539267481       -2.2569935806       -3.9150321938
 H         -5.2187349539       -2.9487203686       -2.3341666394
 H         -4.8992489911       -2.5534089736        0.1138244880
 H         -4.3436881326        0.2773573387        1.7291435924
 H         -4.6349050284        1.9579311805        0.1253673517
 H         -3.5918395561        3.7269247032       -1.2405699560
 H         -1.1564766435        4.0259633765       -1.2425506875
 C          0.7154971688        2.5467704657        0.1825370241
 H          1.0048556847        2.8359291641        1.2041874218
 C          1.2851329777        3.5567804267       -0.7906159412
 C          1.3401120781        5.0085938754       -0.4225175883
 C          2.6008610845        4.2007127305       -0.4755764772
 H          3.2954833664        4.3770115538       -1.2831242705
 H          3.0757558159        3.9283105657        0.4559683834
 H          0.9617867292        5.2925749311        0.5478450568
 H          1.1722056092        5.7437538371       -1.1949127187
 H          1.0925870412        3.2948832093       -1.8246954104
 O          2.3171179767        1.1685900593        2.1035391568
