  62
        -98.93643213
 C         -1.8397340798       -0.2763419564       -0.3678132379
 C         -2.9177094678       -1.1283779452       -0.0364996099
 C         -4.2471887074       -0.5018812682        0.0834864258
 C         -4.3657614466        0.8199610063       -0.1361835177
 C         -5.6027332285        1.6798862291       -0.0719380530
 C         -6.8697037900        1.1121113748       -0.7304855936
 C         -7.9489583654        0.7089424816        0.2756787133
 H         -7.9768137786        1.4549344422        1.0726676933
 H         -8.9193808907        0.7314248694       -0.2251981950
 C         -7.7779028373       -0.6798106489        0.8888650551
 H         -8.5213406593       -0.7840316206        1.6826801639
 H         -8.0006474766       -1.4373809847        0.1343436159
 C         -6.3938164484       -0.9726084013        1.4717524356
 H         -6.5049376023       -1.7717519861        2.2077408909
 H         -6.0107677878       -0.1022762778        2.0032199435
 C         -5.3716629968       -1.4414038656        0.4254392547
 H         -4.8732684177       -2.3488874219        0.7803106279
 H         -5.8861204737       -1.7243731822       -0.4975461107
 H         -6.6098952618        0.2674783607       -1.3667889371
 H         -7.2846163061        1.8871535867       -1.3769838153
 H         -5.3202545003        2.6173982452       -0.5562893285
 H         -5.8045294411        1.9199072314        0.9749048084
 O         -3.2940015771        1.6057442470       -0.4444717229
 C         -2.0136984542        1.0922493490       -0.5662142028
 O         -1.1465538840        1.9395795224       -0.8507019510
 O         -2.7768049514       -2.3662285242        0.1579201552
 C         -0.4506167640       -0.8748587927       -0.5094544013
 C          0.4733888276       -0.2382323111        0.4978928702
 C          0.1905401693       -0.4058000378        1.8522614683
 C          0.9805001276        0.1857635340        2.8175106945
 C          2.0759827397        0.9502442422        2.4536687282
 C          2.3678305737        1.1241800914        1.1066152473
 C          1.5717977634        0.5249615321        0.1378394886
 H          1.8093467062        0.6960683110       -0.8978960243
 N          3.4573481421        1.9179554911        0.7158189202
 S          4.5001748796        1.4412555297       -0.4977051123
 O          5.6214290251        2.3475110425       -0.3834190694
 O          3.8249488018        1.4167140603       -1.7692486092
 C          5.0073577326       -0.2032089695       -0.0291181320
 C          6.0670785741       -0.3384464031        0.8469987959
 C          6.4342856615       -1.6067870444        1.2656210081
 C          5.7324453634       -2.7129463654        0.8106082028
 C          4.6703938362       -2.5600834914       -0.0670529325
 C          4.3007059145       -1.2939959221       -0.4935453478
 H          3.4839478681       -1.1383003682       -1.1785070885
 H          4.1267033756       -3.4210318933       -0.4220119199
 H          6.0158667492       -3.7004521990        1.1389770621
 H          7.2627404067       -1.7291527257        1.9445729663
 H          6.5912336768        0.5473986800        1.1672873275
 H          3.9688134075        2.3305334653        1.4819961999
 H          2.6909593731        1.4208302282        3.2057272800
 H          0.7456551462        0.0508332393        3.8625102118
 H         -0.6688073762       -0.9989892647        2.1337574523
 H         -0.5664755507       -1.9366608642       -0.2479158771
 C          0.0295202841       -0.7780084125       -1.9412082567
 C          1.0292479148       -1.7647393673       -2.4631937491
 C         -0.3962724821       -1.8278342911       -2.9216573211
 H         -0.6301094737       -1.5249825354       -3.9313067572
 H         -1.0178807220       -2.6297204123       -2.5508293101
 H          1.7787131891       -1.4183588331       -3.1596995997
 H          1.3705039785       -2.5325830359       -1.7851294411
 H          0.0837643295        0.2429524309       -2.3027561342
