  62
        -98.95212183
 C          2.3602786374        0.3247923638        0.0412282645
 C          1.5146572619       -0.2392474613       -0.9418520017
 C          1.5074581696       -1.7052428325       -1.0226944657
 C          2.2811704091       -2.4131585876       -0.1800471959
 C          2.3848000789       -3.9107012204       -0.1609930051
 C          1.3904124038       -4.5443378964        0.8199676139
 C         -0.0454213599       -4.0440499841        0.6611609131
 H         -0.6643955356       -4.6066944454        1.3644806184
 H         -0.1025877144       -2.9956354801        0.9633694533
 C         -0.6202901337       -4.1909973720       -0.7545106135
 H         -0.0395219531       -4.9214105871       -1.3199696390
 H         -1.6396272987       -4.5750490792       -0.6754853444
 C         -0.6991964897       -2.8780836567       -1.5360393811
 H         -1.1532946390       -2.1146300038       -0.8991959807
 H         -1.3590597715       -3.0291073533       -2.3949077990
 C          0.6339340424       -2.3371680957       -2.0695624899
 H          1.1709744143       -3.1321206967       -2.5921842732
 H          0.4088801097       -1.5439242628       -2.7884627465
 H          1.4170798245       -5.6275070663        0.6824895483
 H          1.7171992428       -4.3230613308        1.8387988601
 H          2.2083548503       -4.2901647168       -1.1658954159
 H          3.3986913031       -4.1766077871        0.1446339809
 O          3.0625758656       -1.8373308099        0.7701980668
 C          3.1076784524       -0.4605727082        0.9163552442
 O          3.8459552225       -0.0628253334        1.8422474452
 H          0.4442243217        0.8688020846        1.6525110831
 C          0.1524978100        1.7733952433        1.1387824413
 C          1.0670861026        2.4269869845        0.3231582800
 C          0.6691506075        3.5972075301       -0.3118872078
 C         -0.6199248669        4.0770153742       -0.1559727006
 C         -1.5430656649        3.3915669030        0.6123700175
 C         -1.1508477016        2.2259868348        1.2602137421
 N         -2.0563329747        1.4754296979        2.0394028526
 S         -2.3860492057       -0.0884509305        1.5311828926
 O         -3.3581777081       -0.5920484987        2.4781957851
 O         -1.1617306619       -0.8357922926        1.4165339534
 C         -3.1709809446        0.1146700382       -0.0586322084
 C         -4.5475589896        0.0112998842       -0.1268480187
 C         -5.1792653095        0.2227641677       -1.3411460750
 C         -4.4268724045        0.5427941519       -2.4615304258
 C         -3.0476476775        0.6474039658       -2.3744973989
 C         -2.4064072371        0.4335414568       -1.1632168277
 H         -1.3321725435        0.5045022687       -1.0844533878
 H         -2.4543320019        0.8951446703       -3.2399927935
 H         -4.9169014235        0.7108724087       -3.4076924175
 H         -6.2520153943        0.1392258668       -1.4094721696
 H         -5.0884361610       -0.2423066272        0.7706714142
 H         -2.9296912798        1.9525889794        2.2183048355
 H         -2.5568996230        3.7496375762        0.7107405579
 H         -0.9149924693        4.9866282774       -0.6563776336
 H          1.3675446173        4.1310093995       -0.9354515189
 C          2.4477189756        1.8341054585        0.1819897833
 H          3.0037024631        2.0236484373        1.1123375482
 C          3.2299366092        2.4119368310       -0.9810792161
 C          4.0631803782        3.6442896454       -0.8002926582
 C          4.7245178412        2.3100009779       -0.9658681849
 H          5.2370908144        2.0965023312       -1.8917935105
 H          5.1778783238        1.8484397032       -0.1003809304
 H          4.1266657163        4.3486043027       -1.6160901058
 H          4.0803909912        4.0980530068        0.1790942507
 H          2.7286518412        2.2650307463       -1.9311094697
 O          0.8119211600        0.4519916599       -1.7263790076
