  62
        -98.94013868
 C          2.4306851403        0.9550641832        0.0616289294
 C          3.6790223623        0.8752409530        0.7327679514
 C          4.7142028456        0.0631486888        0.0851473306
 C          4.4415479539       -0.5610599640       -1.0746430309
 C          5.3975673082       -1.4052212587       -1.8729499717
 C          5.4911806038       -2.8615404629       -1.3975872449
 C          6.2328458882       -3.0680944797       -0.0763299726
 H          6.4132094713       -4.1400841405        0.0254426229
 H          7.2056818094       -2.5779876483       -0.1264318375
 C          5.4696878036       -2.5767528874        1.1617509709
 H          4.4151491566       -2.4416478806        0.9099833356
 H          5.5162746815       -3.3376547174        1.9440927472
 C          6.0055600732       -1.2770237607        1.7622763590
 H          7.0181468701       -1.4372270614        2.1391852646
 H          5.3708036144       -1.0029236586        2.6087877444
 C          6.0296391136       -0.0931617914        0.7865868302
 H          6.2126920348        0.8193474278        1.3593956074
 H          6.8342373676       -0.2187327773        0.0622454037
 H          4.4803075284       -3.2675577805       -1.3156305725
 H          6.0135174332       -3.4244410124       -2.1746171953
 H          5.0304036625       -1.4019540676       -2.9015411896
 H          6.3887809528       -0.9509989364       -1.8563437832
 O          3.2288185234       -0.4754360559       -1.6793707963
 C          2.1869904233        0.2620000805       -1.1255539072
 O          1.1362058237        0.2115197659       -1.7901452881
 H         -0.9512871079        2.0076638312       -0.7752279956
 C         -1.0195190465        1.2368684734       -0.0230367875
 C          0.0608908205        0.9926236540        0.8094923974
 C         -0.0431048384       -0.0256930469        1.7525719649
 C         -1.1972349355       -0.7787548340        1.8558048064
 C         -2.2706740831       -0.5366754002        1.0166516759
 C         -2.1757558477        0.4732186611        0.0693681837
 N         -3.2544638574        0.7072375861       -0.8001246643
 S         -4.7811934389        0.9177024607       -0.1425322441
 O         -5.5137275359        1.6953321327       -1.1184224921
 O         -4.7097535679        1.4677477327        1.1918911900
 C         -5.4595957182       -0.7275270372       -0.0873140422
 C         -5.9460992294       -1.2321546178        1.1026127841
 C         -6.4817264729       -2.5106717581        1.1193350936
 C         -6.5220291553       -3.2571262750       -0.0482665455
 C         -6.0308218468       -2.7349535962       -1.2357013944
 C         -5.4948580721       -1.4573581763       -1.2593069312
 H         -5.1049144281       -1.0152129653       -2.1610179770
 H         -6.0630622400       -3.3188270030       -2.1415117010
 H         -6.9385736795       -4.2519395455       -0.0331948663
 H         -6.8638550426       -2.9186545993        2.0412985178
 H         -5.8886532627       -0.6171767042        1.9865913578
 H         -3.0614385703        1.3953038010       -1.5129661590
 H         -3.1723467159       -1.1232019173        1.0866177909
 H         -1.2622846189       -1.5642401350        2.5934259335
 H          0.7979890289       -0.2216149977        2.4037326861
 C          1.3411772928        1.7824131791        0.7211874086
 H          1.7096565408        1.9433232966        1.7478345131
 C          1.1458837157        3.1651649278        0.1167092876
 C          2.3200577211        3.9507572529       -0.3835446487
 C          1.2892453082        3.4487898370       -1.3474521704
 H          0.6163560575        4.1662858861       -1.7951583503
 H          1.5463998519        2.6287557272       -1.9992017567
 H          2.3600679305        5.0090371797       -0.1741443692
 H          3.2846013993        3.4645249991       -0.3696428899
 H          0.3801394147        3.7265048890        0.6450246102
 O          3.9170440959        1.4587201688        1.8235033969
