  62
        -98.93535297
 C         -1.5922431233       -1.7427999153        0.1757175338
 C         -2.1768865602       -0.8134813003        1.0726151044
 C         -3.1648936569        0.1321341540        0.5201487708
 C         -3.4651540157        0.0573202870       -0.7891710623
 C         -4.4238063240        0.9263729712       -1.5564347014
 C         -3.8263819184        2.3038860387       -1.9083147142
 C         -2.8987644708        2.8961028235       -0.8482358340
 H         -2.3818398674        3.7509812460       -1.2925741113
 H         -2.1355391291        2.1569394471       -0.5979809366
 C         -3.5877038246        3.3800530084        0.4265555750
 H         -4.2156233606        4.2398046984        0.1802502277
 H         -2.8112359597        3.7251777543        1.1140820560
 C         -4.4616171719        2.3546508724        1.1475603051
 H         -5.3508773759        2.1427519656        0.5598607234
 H         -4.8059954301        2.8176804294        2.0771117521
 C         -3.7632555043        1.0573147975        1.5512588205
 H         -4.4724009321        0.4544339356        2.1321070204
 H         -2.9459543291        1.2898411819        2.2427376046
 H         -4.6422627204        2.9983982841       -2.1129811712
 H         -3.2432987821        2.1913153565       -2.8254569967
 H         -5.3471453789        1.0287758148       -0.9927675115
 H         -4.6576483409        0.4006449122       -2.4845710068
 O         -2.8606006628       -0.8313371007       -1.6234716295
 C         -1.9059435939       -1.7383942733       -1.1832283435
 O         -1.4378710525       -2.4470966950       -2.0940127278
 O         -1.8853242989       -0.7761170490        2.2972407405
 C         -0.5848228007       -2.7124400776        0.7697635236
 C          0.8009918190       -2.1195867234        0.7411847871
 C          1.6233070983       -2.1456874529        1.8608521911
 C          2.8815598233       -1.5685215210        1.8257694819
 C          3.3358874122       -0.9383748894        0.6814848145
 C          2.5148468561       -0.8969515536       -0.4385078658
 C          1.2643928330       -1.4949941405       -0.4082144686
 H          0.6367019498       -1.4699210965       -1.2879175161
 N          2.9427435249       -0.1966973381       -1.5823880947
 S          3.4348973501        1.3844270606       -1.3083916790
 O          3.0463837279        2.1241795871       -2.4887801903
 O          4.8434961303        1.3945714237       -1.0006415927
 C          2.5130212391        1.9289625228        0.1219418307
 C          3.1936421317        2.3705987194        1.2382214095
 C          2.4722075629        2.7482644610        2.3592772458
 C          1.0888856320        2.6656324060        2.3491857899
 C          0.4191002742        2.2217871213        1.2195999684
 C          1.1340895079        1.8543500381        0.0918975548
 H          0.6339967504        1.5081260976       -0.7998463355
 H         -0.6564602315        2.1438298868        1.2191354042
 H          0.5247941823        2.9431172459        3.2254644230
 H          2.9897670718        3.0958597396        3.2386661828
 H          4.2705282639        2.4031154817        1.2071953687
 H          2.2801101157       -0.2359460312       -2.3439082795
 H          4.3051993041       -0.4683001791        0.6369779749
 H          3.5106857900       -1.5991169759        2.7017344788
 H          1.2637901397       -2.6064881700        2.7687274267
 H         -0.8762097261       -2.8093984657        1.8274809977
 C         -0.6449673174       -4.1016907702        0.1517174619
 C          0.4115261979       -4.6454890929       -0.7578551166
 C          0.2791671680       -5.1800876405        0.6347252587
 H         -0.1154282153       -6.1751288116        0.7731186045
 H          1.0400195207       -4.9013528304        1.3478662792
 H          0.0904759976       -5.2565601057       -1.5875469910
 H          1.2605931915       -4.0205050909       -0.9868652448
 H         -1.6646408503       -4.3994635317       -0.0710215165
