  62
        -98.94229993
 C          1.8400071316        1.1144915847       -0.0900517752
 C          3.1966610296        1.2259275789        0.2976780999
 C          4.1129676316        0.2362512314       -0.2835858014
 C          3.6299493766       -0.6834167232       -1.1393234121
 C          4.4415365027       -1.7794315044       -1.7656479635
 C          4.4156811367       -3.0515887235       -0.9066575748
 C          4.7276892558       -2.8065543160        0.5696203953
 H          3.9281927701       -2.2048482273        1.0076517542
 H          4.7115082580       -3.7766393561        1.0708777578
 C          6.0763380849       -2.1204744793        0.8279760083
 H          6.5806173669       -2.6362361728        1.6478707708
 H          6.7136624436       -2.2120432945       -0.0522490124
 C          5.9722578185       -0.6471068727        1.2263467726
 H          5.2630509226       -0.5394712212        2.0508826932
 H          6.9502788451       -0.3238896002        1.5926061160
 C          5.5616092449        0.3194173150        0.1081340582
 H          6.2049664054        0.1706967545       -0.7614802547
 H          5.7136711939        1.3379561274        0.4772469424
 H          3.4205608772       -3.4964227609       -0.9774309541
 H          5.1351297340       -3.7608265886       -1.3198109771
 H          4.0168281270       -2.0041840042       -2.7454768220
 H          5.4662651628       -1.4366478938       -1.8952297735
 O          2.3222441960       -0.7494392624       -1.4987761049
 C          1.3923181387        0.1407164751       -0.9825037674
 O          0.2279768444       -0.0405395853       -1.3863566999
 O          3.6171433118        2.1072657862        1.0941423263
 C          0.8358461832        2.1104334971        0.4612511574
 C         -0.3473194980        1.3834338472        1.0464822153
 C         -0.1250764298        0.3429160032        1.9455661863
 C         -1.1755482354       -0.3874724779        2.4656512122
 C         -2.4778717632       -0.0981523617        2.0950398181
 C         -2.7114464662        0.9499753460        1.2180863780
 C         -1.6561559082        1.6932743911        0.7100029007
 H         -1.8685658090        2.4920979637        0.0162360845
 N         -4.0538682928        1.2042494516        0.8132818586
 S         -4.4258912095        0.4234813810       -0.6407423313
 O         -3.6345132095        0.9598764880       -1.7278431437
 O         -5.8575334282        0.5636229185       -0.8036421121
 C         -4.0044155405       -1.2700302154       -0.3120798492
 C         -4.9702364025       -2.0903204409        0.2381737440
 C         -4.6435887154       -3.4033555157        0.5349678448
 C         -3.3612021309       -3.8673473323        0.2821287510
 C         -2.4047327280       -3.0289566750       -0.2697287742
 C         -2.7226151548       -1.7136930869       -0.5724140601
 H         -1.9928272606       -1.0396344105       -0.9959779311
 H         -1.4052762769       -3.3842221246       -0.4650237742
 H         -3.1038199536       -4.8886040009        0.5156199499
 H         -5.3851729818       -4.0584840453        0.9629239030
 H         -5.9522622511       -1.6824731607        0.4135383682
 H         -4.2299499306        2.1916254044        0.6727603030
 H         -3.3087777561       -0.6694317873        2.4754380847
 H         -0.9804556343       -1.1946452141        3.1547646613
 H          0.8940230307        0.1049017900        2.2191204271
 H          1.3592532549        2.6427793919        1.2693923328
 C          0.4618499871        3.1107891019       -0.6133862097
 C          0.0577188068        4.5058628890       -0.2422722922
 C          1.3865002796        4.2568497530       -0.8885713594
 H          1.5306144101        4.5684075163       -1.9123091122
 H          2.2757171955        4.3300913959       -0.2799223495
 H         -0.7114201946        4.9917236965       -0.8244096910
 H          0.0446047746        4.7606903408        0.8067402347
 H         -0.0251985536        2.6460227890       -1.4652960054
