  62
        -98.94544887
 C          1.6868116433        0.8900052716        0.1292368328
 C          2.7188075743        0.5909865613        1.0498249817
 C          3.4081284139       -0.6886240565        0.8463212877
 C          3.0141232560       -1.5089699783       -0.1447933780
 C          3.5999760517       -2.8580952423       -0.4624405518
 C          4.8582444176       -2.8009598350       -1.3396655122
 C          6.1191177571       -2.2946403692       -0.6379909041
 H          6.2728945802       -2.8585049305        0.2827171434
 H          6.9616822860       -2.5127344737       -1.2972298367
 C          6.1116069881       -0.7910335831       -0.3284886708
 H          5.3430952051       -0.2990546254       -0.9290839354
 H          7.0706573165       -0.3550774078       -0.6169925490
 C          5.8835310746       -0.4477390787        1.1436182385
 H          5.8592228118        0.6406022095        1.2422153138
 H          6.7184185773       -0.8205622507        1.7411730296
 C          4.5787338114       -1.0055994672        1.7269997437
 H          4.6636388244       -2.0818752666        1.8772495127
 H          4.4048977090       -0.5299281976        2.6956361472
 H          5.0506742381       -3.8147269311       -1.6984212708
 H          4.6494475587       -2.1744990158       -2.2098589274
 H          3.8245451142       -3.3885221182        0.4636015126
 H          2.8293664976       -3.4131319886       -1.0021096601
 O          1.9893394266       -1.2034213287       -0.9841761463
 C          1.3178732559        0.0109042992       -0.8895448264
 O          0.4276473203        0.1691244325       -1.7429023256
 O          3.0424612270        1.3525023042        2.0014468338
 C          0.9526423502        2.2109856165        0.2538461533
 C         -0.5346493018        2.0080054734        0.4122528935
 C         -1.4711992422        2.8825673801       -0.1259224831
 C         -2.8259648548        2.6648611260        0.0572649781
 C         -3.2791990079        1.5680953611        0.7664308768
 C         -2.3515308053        0.6828186505        1.3006861185
 C         -0.9948516169        0.9162278145        1.1364415094
 H         -0.2794328172        0.2247527382        1.5649034519
 N         -2.7992814496       -0.4580490079        1.9877058303
 S         -4.0659243939       -1.3208979630        1.3112784851
 O         -5.3170781887       -0.7605027780        1.7605466892
 O         -3.8297722137       -2.6975505664        1.6898952885
 C         -3.9271660789       -1.1182062659       -0.4568885766
 C         -2.7083508673       -1.3484831034       -1.0625246525
 C         -2.5908528877       -1.1608330367       -2.4296334962
 C         -3.6948772168       -0.7626716360       -3.1675736424
 C         -4.9170096384       -0.5506542285       -2.5482918178
 C         -5.0355046330       -0.7228763417       -1.1787211998
 H         -5.9607464040       -0.5508379566       -0.6529453686
 H         -5.7737063891       -0.2426284115       -3.1258444313
 H         -3.5975990862       -0.6136856083       -4.2313580742
 H         -1.6288907801       -1.2990743625       -2.8964146374
 H         -1.8569087733       -1.6526219336       -0.4741863151
 H         -2.0574014239       -1.0758485782        2.2822722612
 H         -4.3305461517        1.3815987765        0.9156056438
 H         -3.5398604881        3.3555940262       -0.3640387846
 H         -1.1389085683        3.7369606995       -0.6920912384
 H          1.3337188109        2.6696287086        1.1794055487
 C          1.3067391065        3.1111757446       -0.9137079617
 C          1.4149946513        4.5945895326       -0.7293715826
 C          2.6513938321        3.7724449232       -0.9296754951
 H          3.1794772136        3.8487643790       -1.8683523623
 H          3.2962908309        3.6010730980       -0.0798541588
 H          1.0953304990        5.2390020348       -1.5344624294
 H          1.2285138945        4.9926414577        0.2566880833
 H          0.9217006150        2.7369774369       -1.8557452098
