  62
        -98.93748167
 C         -1.7901552879        0.8878742897       -0.3882518953
 C         -2.4707581979        0.3360405061        0.7234090596
 C         -3.5994731089       -0.5557383482        0.4093811880
 C         -3.8841813551       -0.8295694092       -0.8765916406
 C         -5.0476675250       -1.6495274766       -1.3571685440
 C         -6.3424612658       -0.8146116558       -1.2886242402
 C         -7.3732637552       -1.3303855755       -0.2841821330
 H         -8.1326360197       -0.5541958937       -0.1679917516
 H         -7.8648436507       -2.2119833899       -0.7009993226
 C         -6.8302804705       -1.7072114891        1.0976820195
 H         -6.3688939860       -2.6949780748        1.0540747467
 H         -7.6909824222       -1.7956433127        1.7640881509
 C         -5.8277024576       -0.7243035963        1.7160934582
 H         -5.9630449950        0.2749417565        1.3016797450
 H         -6.0356778682       -0.6558237967        2.7857674967
 C         -4.3513695259       -1.1396734831        1.5731818013
 H         -3.8042091650       -0.7986510729        2.4572427946
 H         -4.2795040419       -2.2306064988        1.5451874977
 H         -6.8098521943       -0.7870447490       -2.2741149670
 H         -6.0733133052        0.2140294849       -1.0397627963
 H         -4.8375467361       -1.9408309240       -2.3865921254
 H         -5.1388739534       -2.5490606538       -0.7523177386
 O         -3.1713212733       -0.3208953210       -1.9158279038
 C         -2.1118126599        0.5452250175       -1.7006025381
 O         -1.5378772865        0.9261579371       -2.7419537961
 H          0.4902516995       -0.4393461752       -0.8930010493
 C          0.9489726286       -0.0600247252        0.0123067586
 C          0.4881433662        1.1361360815        0.5503462547
 C          1.0943206932        1.6215658681        1.7005385891
 C          2.1118831046        0.9072458346        2.3110830197
 C          2.5548372037       -0.2910977611        1.7839618812
 C          1.9694195400       -0.7743294499        0.6195843445
 N          2.4317536902       -1.9770500913        0.0588812679
 S          4.0874104789       -2.1990894155       -0.0476753837
 O          4.2811571378       -3.0703861807       -1.1857496221
 O          4.5922598738       -2.6899901726        1.2105358853
 C          4.7607983272       -0.5788314268       -0.3738821642
 C          5.6630812618       -0.0182825258        0.5069804015
 C          6.1492804682        1.2536671457        0.2498723546
 C          5.7231127573        1.9410873030       -0.8756822453
 C          4.8189473184        1.3626333264       -1.7536251442
 C          4.3316994311        0.0903441193       -1.5030658556
 H          3.6300650222       -0.3864013502       -2.1692338031
 H          4.4874933576        1.8978446077       -2.6290734758
 H          6.0965873107        2.9336352892       -1.0721160641
 H          6.8539617858        1.7050775358        0.9293741907
 H          5.9638025948       -0.5866993398        1.3719176534
 H          1.9701721579       -2.2332397714       -0.8011025561
 H          3.3353468666       -0.8654574533        2.2560621910
 H          2.5648991831        1.2892043840        3.2129555505
 H          0.7633875470        2.5533437173        2.1276678347
 C         -0.6308002577        1.8455910981       -0.1737335974
 H         -0.2672302537        2.1065952131       -1.1782987895
 C         -1.1044030073        3.1072818782        0.5154878578
 C         -0.3670909509        4.3954446365        0.3109242706
 C         -1.7152391038        4.1965389306       -0.3122028241
 H         -2.5573025204        4.7394293442        0.0902331981
 H         -1.7698448754        4.0380268560       -1.3797522924
 H          0.4964864841        4.3792174819       -0.3363621591
 H         -0.2844619339        5.0804079467        1.1410794772
 H         -1.5425609883        2.9134694151        1.4873537602
 O         -2.1560132664        0.5744368185        1.9179328192
