  62
        -98.93712137
 C          2.5568578446        0.1512241094       -0.1430742266
 C          2.2371724762        1.2522133362       -0.9751583818
 C          1.6243379786        2.4231534453       -0.3288807641
 C          1.4174219784        2.4065406913        0.9986545989
 C          0.8682140596        3.4981946925        1.8840364173
 C         -0.3444930174        4.2868956398        1.3756461205
 C         -1.3508480676        3.4698762503        0.5519387603
 H         -1.1413948221        2.4015070851        0.6427346015
 H         -2.3538597839        3.6367551847        0.9506452315
 C         -1.3664226530        3.8598835322       -0.9278515073
 H         -2.3055910271        3.5158376612       -1.3683180192
 H         -1.3407155950        4.9496791288       -1.0067626646
 C         -0.2388612225        3.2675871335       -1.7714815977
 H         -0.3219567746        3.6784739135       -2.7811976146
 H         -0.3828637068        2.1857060865       -1.8544156799
 C          1.1862168458        3.5243364170       -1.2507370308
 H          1.8686954702        3.4933607630       -2.1046679279
 H          1.2632678048        4.5015924996       -0.7794750387
 H         -0.0061602754        5.1354804560        0.7823062951
 H         -0.8429327756        4.6963347299        2.2561640298
 H          1.6817197369        4.1963556937        2.1046030300
 H          0.6092879977        2.9960638804        2.8193392204
 O          1.7546101113        1.3342763963        1.7667139559
 C          2.2460830490        0.1612529378        1.2177066794
 O          2.3805216669       -0.7598060911        2.0456499109
 O          2.4554247095        1.2561975430       -2.2182153038
 C          3.0085815830       -1.1338583245       -0.8214297831
 C          2.0102241301       -2.2022901556       -0.4516070702
 C          2.3198459553       -3.4077637296        0.1607261949
 C          1.3059717705       -4.2682959000        0.5495381511
 C         -0.0235294085       -3.9354847759        0.3661289811
 C         -0.3409802460       -2.7342646075       -0.2594667724
 C          0.6750772558       -1.9041911293       -0.6943739528
 H          0.4210238807       -0.9740230477       -1.1828769085
 N         -1.6745993705       -2.3319536360       -0.4624742518
 S         -1.9795116077       -0.6692940889       -0.3365971394
 O         -1.7269920614       -0.0615320693       -1.6196389475
 O         -1.2776426138       -0.1096138043        0.7952176519
 C         -3.7365250746       -0.6847199321       -0.0335949854
 C         -4.2115668443       -0.4729379528        1.2463016692
 C         -5.5792671972       -0.5158694385        1.4692423506
 C         -6.4427036978       -0.7722967081        0.4149439620
 C         -5.9507185792       -0.9822000691       -0.8650286534
 C         -4.5849775497       -0.9383394346       -1.0951016569
 H         -4.1558401664       -1.0841970306       -2.0725714282
 H         -6.6250969342       -1.1783864126       -1.6828027660
 H         -7.5061168009       -0.8058123484        0.5915179177
 H         -5.9640195073       -0.3491677687        2.4623950350
 H         -3.5011874426       -0.2712774861        2.0322844561
 H         -2.3320093537       -2.8707178875        0.0854715471
 H         -0.8091085273       -4.5909094595        0.7105035240
 H          1.5562401866       -5.2006647845        1.0329177765
 H          3.3481389789       -3.6580092256        0.3648733540
 H          2.8914742982       -0.9204676863       -1.8981463128
 C          4.4605761099       -1.5297388342       -0.6200000518
 C          5.5030368796       -0.4937083166       -0.3251223410
 C          5.1402641627       -1.5088397679        0.7148070443
 H          5.8534058590       -2.2906958321        0.9326318201
 H          4.5600237607       -1.1933721579        1.5665141567
 H          6.4619391263       -0.5726572391       -0.8150309991
 H          5.1639326983        0.5226168862       -0.1836165558
 H          4.7550401091       -2.3247420986       -1.2989701608
