  62
        -98.93723143
 C         -2.3523242983        0.6074117252       -0.0470954139
 C         -3.4399605404        0.5033039656       -0.9428411690
 C         -4.4602701603       -0.5189699434       -0.6397471348
 C         -4.2904340328       -1.2990036576        0.4442765142
 C         -5.2028418874       -2.3764733809        0.9670107455
 C         -6.4369825249       -1.8091348455        1.6869825391
 C         -7.1140797747       -0.6397643381        0.9769160754
 H         -7.8982369259       -0.2595411136        1.6369882235
 H         -6.3890239205        0.1645752277        0.8396098828
 C         -7.7579791769       -0.9781607000       -0.3655083344
 H         -8.5104647334       -1.7557204579       -0.2158795515
 H         -8.2743262132       -0.0796004714       -0.7130228698
 C         -6.8025728666       -1.4334515818       -1.4705771297
 H         -7.3567581809       -1.4003098942       -2.4132483018
 H         -6.5009511111       -2.4675045976       -1.3271159828
 C         -5.5750202586       -0.5472667582       -1.6577797075
 H         -5.8990621940        0.4928524515       -1.7781469302
 H         -5.0976289104       -0.8104103168       -2.6096146965
 H         -6.1212858081       -1.4609977852        2.6734785357
 H         -7.1558528336       -2.6178062087        1.8288752608
 H         -5.4960081496       -3.0410505188        0.1598189617
 H         -4.6201407595       -2.9597606750        1.6833303457
 O         -3.2174048605       -1.1680491045        1.2760622439
 C         -2.2284539760       -0.2262187503        1.0633333615
 O         -1.3182289434       -0.2315248968        1.9137169229
 O         -3.5622143058        1.2364585660       -1.9619259423
 C         -1.2749598643        1.6426439922       -0.3159974851
 C          0.0455118181        0.9463936156       -0.5332114180
 C          0.1490683405        0.0277855678       -1.5754441375
 C          1.3315376932       -0.6456936816       -1.8096331891
 C          2.4385977071       -0.4221883737       -1.0085816459
 C          2.3499908193        0.4968411336        0.0266405227
 C          1.1603973496        1.1796105516        0.2545024169
 H          1.1084761494        1.8872928441        1.0669965417
 N          3.4621407149        0.7204056228        0.8521803500
 S          4.9750607372        0.9268729472        0.1639157033
 O          5.7341826967        1.6741649704        1.1427150793
 O          4.8830410605        1.5079643154       -1.1553476767
 C          5.6314823545       -0.7249942211        0.0609072672
 C          6.1116737753       -1.2024565991       -1.1427389997
 C          6.6299860392       -2.4871131973       -1.1954807397
 C          6.6599537764       -3.2667188852       -0.0494562987
 C          6.1757348575       -2.7714563918        1.1522640074
 C          5.6571123938       -1.4879451852        1.2117871567
 H          5.2732336757       -1.0667998193        2.1260422191
 H          6.1997712107       -3.3807484126        2.0414373978
 H          7.0628674298       -4.2663163396       -0.0927058911
 H          7.0067788513       -2.8740724942       -2.1286626730
 H          6.0634886148       -0.5626634252       -2.0096318218
 H          3.2986250349        1.3804910970        1.5978756100
 H          3.3628281649       -0.9485455294       -1.1819543332
 H          1.3941166235       -1.3554995593       -2.6205812785
 H         -0.7170254061       -0.1509303177       -2.1982305779
 H         -1.5639685678        2.1253539553       -1.2610232273
 C         -1.2512513523        2.6893455544        0.7770959196
 C         -0.6697208888        4.0435706199        0.5036149278
 C         -2.1510362121        3.8815045011        0.6617639209
 H         -2.6194235504        4.2622373786        1.5569780563
 H         -2.7715343953        3.9524059788       -0.2195044344
 H         -0.1217395678        4.5404455249        1.2902571557
 H         -0.2812777841        4.2286984874       -0.4866074775
 H         -1.1150207405        2.2623349848        1.7644941097
