  62
        -98.93095049
 C         -2.1133055437       -0.6160835246        0.5498320867
 C         -3.2349912261       -0.8455445857       -0.2803292691
 C         -4.3399626848        0.1313959540       -0.1880786026
 C         -4.2073365179        1.2044491726        0.6103484601
 C         -5.1824910783        2.3259532979        0.8671860134
 C         -5.9278117226        2.8947229516       -0.3499954756
 C         -7.4124627329        2.5265709035       -0.3828437909
 H         -7.8049943931        2.5784555445        0.6348528424
 H         -7.9441097494        3.2745014318       -0.9753194640
 C         -7.7304312106        1.1555248242       -0.9768511463
 H         -7.5719038263        1.1836617193       -2.0569964856
 H         -8.7923206249        0.9609222135       -0.8091203545
 C         -6.9212347201       -0.0079176218       -0.4010024477
 H         -7.4833541357       -0.9270378990       -0.5792636663
 H         -6.8174810647        0.0966772614        0.6784569322
 C         -5.5374052762       -0.1722222379       -1.0473042698
 H         -5.3979733058       -1.2119131919       -1.3585499341
 H         -5.4777474562        0.4249135732       -1.9614036345
 H         -5.8530804160        3.9825016979       -0.3045401954
 H         -5.4360957648        2.5767315026       -1.2678104801
 H         -5.9021697373        1.9905679056        1.6185516738
 H         -4.5874475236        3.1119558308        1.3380978631
 O         -3.0896908631        1.4074366949        1.3674889060
 C         -2.0422273709        0.5088016891        1.3760731772
 O         -1.1147412148        0.8147051146        2.1543844931
 H          1.6607195992       -0.7789869286        0.8050033505
 C          1.3596492817       -0.9363933267       -0.2199328951
 C          0.0564051443       -1.3169591452       -0.5073399368
 C         -0.3135539829       -1.4960684396       -1.8361069565
 C          0.6035533453       -1.2863092997       -2.8493355296
 C          1.9007400401       -0.9022474631       -2.5601093666
 C          2.2841885975       -0.7314732070       -1.2345048567
 N          3.6139402062       -0.3997383121       -0.9215787202
 S          3.9607515791        0.5464809709        0.4304671844
 O          3.8048717732       -0.2585897292        1.6156520208
 O          3.2142498976        1.7843485536        0.3827782826
 C          5.6941766148        0.8525347675        0.1446949865
 C          6.5852278925       -0.1804263689        0.3688181001
 C          7.9325942275        0.0323567017        0.1258562400
 C          8.3648843827        1.2677628470       -0.3338210373
 C          7.4596962814        2.2953682547       -0.5512101799
 C          6.1098192130        2.0884865385       -0.3119655265
 H          5.3703275242        2.8590179505       -0.4605478842
 H          7.7990168139        3.2555037937       -0.9051270132
 H          9.4143248428        1.4313788840       -0.5212445331
 H          8.6395629700       -0.7635162009        0.2960701553
 H          6.2039696178       -1.1192609008        0.7349392257
 H          4.1318615511       -0.0768346124       -1.7280130709
 H          2.6144518943       -0.7399463502       -3.3535871295
 H          0.3038559693       -1.4210062533       -3.8777575301
 H         -1.3266268981       -1.7891113134       -2.0638663056
 C         -0.9164702065       -1.5508565371        0.6241696061
 H         -0.3994972307       -1.2886476977        1.5581591984
 C         -1.3043037626       -3.0163376025        0.6902208022
 C         -0.3245225191       -3.9956365393        1.2593378179
 C         -1.5657913005       -3.6459318648        2.0233456106
 H         -2.3516975259       -4.3821786479        2.0996350014
 H         -1.4663588396       -3.0204381119        2.8991553306
 H          0.6176093873       -3.6072278766        1.6176205698
 H         -0.2555308937       -4.9747765967        0.8110891733
 H         -1.9164395206       -3.3368342287       -0.1419582295
 O         -3.3432940408       -1.8204147198       -1.0708922412
