  62
        -98.94012815
 C          2.5268689492        0.1032998146       -0.4762025980
 C          2.2077256765        0.7814999580        0.7231580333
 C          1.7248120297        2.1669940802        0.5854776993
 C          1.5598779669        2.6875511933       -0.6423404112
 C          1.1158497216        4.0744165612       -1.0415235186
 C          0.0152994148        4.7485583497       -0.2162189718
 C         -1.0946701158        3.8088902091        0.2766607891
 H         -2.0641013586        4.2235354685       -0.0072076739
 H         -1.0073065547        2.8298776562       -0.2001646389
 C         -1.0829206954        3.6194297350        1.7946636541
 H         -0.9024731676        4.5841168325        2.2752270920
 H         -2.0686493246        3.2705619414        2.1105386563
 C         -0.0613454185        2.6016363819        2.2963018525
 H         -0.3371767446        1.6079183884        1.9339343358
 H         -0.1090174742        2.5778794461        3.3880238262
 C          1.3923547954        2.8690568445        1.8713142917
 H          1.5968880047        3.9357832796        1.8110365454
 H          2.0503197356        2.4308547652        2.6269417785
 H          0.4600422257        5.2555067992        0.6389587020
 H         -0.4184492848        5.5236621707       -0.8509695834
 H          2.0005200516        4.7192158021       -1.0507824717
 H          0.7831135690        3.9742997320       -2.0781350968
 O          1.8468559899        1.9816668492       -1.7761918171
 C          2.3233134808        0.6850868582       -1.7244134452
 O          2.5335199960        0.1671635790       -2.8427599849
 H          0.4126745242       -1.2716551489       -1.0324092819
 C          0.6017972461       -1.9709036421       -0.2291414398
 C          1.9037486856       -2.1720181336        0.2113997484
 C          2.1258772258       -3.0958133442        1.2236427817
 C          1.0608141678       -3.7654965815        1.8024977529
 C         -0.2388958349       -3.5160673189        1.4025676303
 C         -0.4682418556       -2.6087270952        0.3736599175
 N         -1.7695297391       -2.3243922124       -0.0767886696
 S         -2.0719336669       -0.7365436653       -0.5783465161
 O         -1.7660715945       -0.6335271939       -1.9849429593
 O         -1.4114882376        0.2009097818        0.2974314103
 C         -3.8386408453       -0.6534444500       -0.3492709340
 C         -4.6580701711       -1.2632223273       -1.2806182261
 C         -6.0301959924       -1.2280747160       -1.0898224322
 C         -6.5569392926       -0.5875126352        0.0222467877
 C         -5.7221789156        0.0222804052        0.9465097553
 C         -4.3485418486       -0.0108487624        0.7626356506
 H         -3.6588788022        0.4531796059        1.4496569770
 H         -6.1341072459        0.5227480939        1.8079048176
 H         -7.6252417105       -0.5608329785        0.1677917698
 H         -6.6823544656       -1.6982196227       -1.8079627465
 H         -4.2024217298       -1.7390429506       -2.1333790016
 H         -2.4857775896       -2.6614178611        0.5522820456
 H         -1.0689952613       -4.0150868391        1.8790203579
 H          1.2453001144       -4.4755273426        2.5944474772
 H          3.1293959063       -3.2790505804        1.5711067080
 C          2.9895556805       -1.3432661153       -0.4325968697
 H          3.0900581650       -1.6615855137       -1.4812391015
 C          4.3352368691       -1.4621108596        0.2499923992
 C          5.2661615005       -2.5799480912       -0.1094160662
 C          5.5751605072       -1.1789495837       -0.5417138168
 H          6.3861439442       -0.6546494616       -0.0591827329
 H          5.4482377316       -0.9224280771       -1.5837343398
 H          4.9382125089       -3.2804175391       -0.8625915029
 H          5.8709365292       -3.0182953035        0.6699215268
 H          4.3096332243       -1.1229460693        1.2789195614
 O          2.3421271793        0.2653753219        1.8636707592
