  62
        -98.94896652
 C         -1.6363897111       -1.2868300221       -0.2820038597
 C         -0.5661722793       -1.7137138813       -1.1016927509
 C          0.4073098370       -2.6144078215       -0.4737516271
 C          0.2564602942       -2.9443541137        0.8219259708
 C          1.1952965947       -3.8258850867        1.5939336269
 C          2.2913924551       -3.0097503150        2.2918966547
 C          2.9917790231       -2.0019683176        1.3801586234
 H          2.2755785144       -1.2235239866        1.1050913221
 H          3.7683906137       -1.5170278421        1.9777489209
 C          3.6199266550       -2.6089297104        0.1176921963
 H          3.7475014604       -3.6840605166        0.2513972554
 H          4.6148119489       -2.1789053131       -0.0161781485
 C          2.8425918082       -2.3460690680       -1.1731427250
 H          2.6171219652       -1.2798061620       -1.2526465743
 H          3.4847385530       -2.6127174853       -2.0166247294
 C          1.5310881182       -3.1239459125       -1.3316391168
 H          1.1958878488       -3.0023938499       -2.3657966585
 H          1.7052187515       -4.1861804973       -1.1481607949
 H          3.0256876297       -3.7030177853        2.7079078975
 H          1.8387632305       -2.4544488082        3.1170798402
 H          0.6181639493       -4.3608445993        2.3504312981
 H          1.6444038090       -4.5489797325        0.9152508646
 O         -0.7658866952       -2.4880601123        1.5889169724
 C         -1.7238439346       -1.6328148120        1.0663930896
 O         -2.5937467416       -1.2744134202        1.8842449770
 H         -0.4890466771        1.0274785071       -0.3277192960
 C         -1.3603429439        1.5360877733        0.0593542976
 C         -2.6152350651        0.9718691851       -0.1366162816
 C         -3.7284754419        1.6400815608        0.3543371171
 C         -3.5774146262        2.8229554073        1.0583035689
 C         -2.3230169956        3.3516512949        1.2986978825
 C         -1.2032653547        2.6974158765        0.7957173963
 N          0.0869408055        3.2094420063        1.0004298532
 S          1.4065748541        2.1932019847        1.1434171117
 O          1.0426655244        0.8871732752        1.6419375436
 O          2.3540672742        2.9323245525        1.9531940940
 C          2.0775160908        2.0572192057       -0.5025776349
 C          3.2397141120        1.3224015453       -0.6366466575
 C          3.8200288251        1.1982488379       -1.8887857880
 C          3.2296856108        1.8089602679       -2.9842193624
 C          2.0664165885        2.5464328913       -2.8331653444
 C          1.4825449534        2.6772791388       -1.5820400273
 H          0.5764705708        3.2432734833       -1.4418542452
 H          1.6072067335        3.0199236315       -3.6860352732
 H          3.6781678598        1.7080608932       -3.9598157612
 H          4.7243906577        0.6227478412       -2.0045311015
 H          3.6637785256        0.8606893714        0.2410643917
 H          0.1476208512        3.9937398210        1.6322632358
 H         -2.2056025537        4.2579086876        1.8730164072
 H         -4.4493643957        3.3304488533        1.4423058895
 H         -4.7125231083        1.2288337938        0.2008623570
 C         -2.6770047007       -0.3469906680       -0.8658767581
 H         -2.3667358119       -0.1805271452       -1.9084208561
 C         -4.0490826383       -0.9856426147       -0.8587630027
 C         -5.0710217825       -0.5899873494       -1.8814783291
 C         -4.4129283029       -1.9336197306       -1.9607502065
 H         -4.9930812048       -2.8103298538       -1.7150182410
 H         -3.6771062085       -2.1002070963       -2.7337981560
 H         -4.7874611166        0.1557380806       -2.6084505812
 H         -6.1077815339       -0.5458848632       -1.5838273773
 H         -4.3891070304       -1.2278250086        0.1418617445
 O         -0.4352317905       -1.3617625257       -2.3062141867
