  62
        -98.93764792
 C          0.9865749486        1.8056160903        0.3928296313
 C          1.4769569792        1.2189762209       -0.8055067887
 C          2.6622466597        0.3533662815       -0.6657690586
 C          3.2219597896        0.1509552416        0.5385489315
 C          4.4756639800       -0.6304602077        0.8260087016
 C          4.2765964408       -2.1455605278        0.9621881312
 C          3.9897343516       -2.8820139077       -0.3465920390
 H          4.7436237716       -2.6162044871       -1.0882733688
 H          4.0919007522       -3.9502031777       -0.1457906092
 C          2.5884116316       -2.6193111084       -0.9142533793
 H          1.9519406811       -2.2076808590       -0.1284793293
 H          2.1300730022       -3.5618205587       -1.2233797296
 C          2.5457849613       -1.6872101682       -2.1254501791
 H          1.4968804913       -1.5376966588       -2.3964647093
 H          3.0444994818       -2.1656627877       -2.9721096891
 C          3.1893634004       -0.3122632679       -1.9007869286
 H          4.2742720405       -0.4111260772       -1.8441395184
 H          2.9399316902        0.3222755622       -2.7551644186
 H          5.1935257010       -2.5551378674        1.3920594613
 H          3.4646185908       -2.3328978185        1.6682300310
 H          5.2113159400       -0.4308479971        0.0457495018
 H          4.8630068995       -0.2489304777        1.7734540218
 O          2.7076727790        0.6996631111        1.6696696115
 C          1.5944367185        1.5196590004        1.6246721614
 O          1.2436715480        1.9348050199        2.7482861514
 O          0.9911821694        1.3942560308       -1.9518620488
 C         -0.1973923820        2.7522483596        0.5206338412
 C         -1.5556097916        2.1088640588        0.3373756108
 C         -2.6308616320        2.6060319780        1.0711935906
 C         -3.8890251717        2.0482012973        0.9548155702
 C         -4.0960664908        0.9541474273        0.1328957199
 C         -3.0321064704        0.4475540381       -0.6013098099
 C         -1.7786276507        1.0422362288       -0.5180118695
 H         -0.9881837904        0.6591320095       -1.1407459094
 N         -3.2000500995       -0.6825329918       -1.4195039302
 S         -2.0675260088       -1.9135683012       -1.3280955502
 O         -0.8888530088       -1.5778250403       -2.0790267399
 O         -2.7866600880       -3.0892121315       -1.7726322407
 C         -1.6979964091       -2.0564156413        0.4113002498
 C         -2.5841117789       -2.7520683120        1.2104895895
 C         -2.3482876991       -2.8189670922        2.5737622695
 C         -1.2425613397       -2.1806238716        3.1155032799
 C         -0.3619769899       -1.4861878009        2.3008528503
 C         -0.5891885996       -1.4242428508        0.9351223202
 H          0.0786540002       -0.8913200202        0.2767708505
 H          0.4922815097       -0.9764593405        2.7205570706
 H         -1.0617713799       -2.2219643118        4.1779813199
 H         -3.0272609290       -3.3619684527        3.2111515392
 H         -3.4276294585       -3.2391973024        0.7488110792
 H         -4.1350144893       -1.0648285824       -1.4086856605
 H         -5.0705605205        0.4962502967        0.0588177096
 H         -4.7116570421        2.4511163066        1.5252827201
 H         -2.4677744627        3.4340290679        1.7453401309
 H         -0.1537575324        3.0555605394        1.5788647113
 C         -0.1548258626        4.0637352498       -0.2649177585
 C          1.0780586572        4.5840564607       -0.9356463181
 C         -0.1022305123        4.1602006501       -1.7574786484
 H         -0.6972537927        4.9231292599       -2.2384416084
 H         -0.0117873216        3.2438341503       -2.3172042286
 H          1.3085425966        5.6358087908       -0.8487567278
 H          1.9490493076        3.9447736612       -0.9504920080
 H         -0.7726053232        4.8146529493        0.2196379216
