  62
        -98.93949380
 C          2.6387422364        1.2217364969        0.2475704677
 C          2.5061207880        0.1792439829       -0.7032600091
 C          3.6841290974       -0.6884545948       -0.8695908069
 C          4.7914986713       -0.4538545915       -0.1442076099
 C          6.0349169328       -1.2933051936       -0.1764354810
 C          5.9821608050       -2.4018287447        0.8843669247
 C          4.6795820185       -3.2022191227        0.8785212570
 H          4.7697313081       -3.9740909111        1.6459581064
 H          3.8567975622       -2.5481012597        1.1765647544
 C          4.3420193146       -3.8572420610       -0.4681262403
 H          4.0170164550       -4.8837294068       -0.2859339739
 H          5.2363457213       -3.9065047033       -1.0904266085
 C          3.2203716444       -3.1669068833       -1.2465314113
 H          2.3520246697       -3.0302703490       -0.5968120253
 H          2.9172011470       -3.8275886918       -2.0630593021
 C          3.5757965207       -1.8090587542       -1.8650583771
 H          4.4947137163       -1.8982060739       -2.4481144852
 H          2.7631441181       -1.5308515796       -2.5425330444
 H          6.8259114341       -3.0749955893        0.7220380107
 H          6.0977635631       -1.9437542613        1.8694801195
 H          6.1479774935       -1.7287717936       -1.1673047043
 H          6.8913960239       -0.6483289341        0.0272630246
 O          4.8839966366        0.5600750245        0.7541363282
 C          3.8096191960        1.4013989880        0.9893761033
 O          4.0162374874        2.2577987959        1.8724703243
 H         -0.7852854800        2.1203966794       -0.9938114303
 C         -0.8530540428        1.4768846853       -0.1303850516
 C          0.2169001311        1.3823563055        0.7441182476
 C          0.1108076757        0.5227903522        1.8341752566
 C         -1.0321759928       -0.2264513671        2.0355598915
 C         -2.0947526476       -0.1370168332        1.1532934044
 C         -2.0005073296        0.7179307868        0.0644219305
 N         -3.0653235665        0.7969794882       -0.8465100908
 S         -4.6277555145        0.9622780387       -0.2684356826
 O         -5.3685837066        1.5735990614       -1.3506145207
 O         -4.6529366338        1.6579573063        0.9976880552
 C         -5.1915916888       -0.7132859927       -0.0556503329
 C         -5.0811024622       -1.5797739937       -1.1253794396
 C         -5.5266610734       -2.8836347013       -0.9789635949
 C         -6.0754566549       -3.2959311493        0.2262720888
 C         -6.1826712656       -2.4129449885        1.2896905698
 C         -5.7376114072       -1.1074803346        1.1500604785
 H         -5.7952127321       -0.3881850836        1.9515190803
 H         -6.6094853937       -2.7354376004        2.2257976002
 H         -6.4212076469       -4.3115588554        0.3372669861
 H         -5.4437919596       -3.5733873167       -1.8034839555
 H         -4.6502444775       -1.2215909293       -2.0454390059
 H         -2.8918264411        1.4033054610       -1.6343488377
 H         -2.9877123530       -0.7223085526        1.3006320776
 H         -1.0968789817       -0.8903619041        2.8844733123
 H          0.9444256165        0.4463495769        2.5198570820
 C          1.4925583544        2.1679601962        0.5654694461
 H          1.7526514734        2.6082525407        1.5422822692
 C          1.3515432708        3.3321703323       -0.4037454847
 C          2.5594775018        3.9440137880       -1.0464378795
 C          1.5680403370        3.1913858829       -1.8794216868
 H          0.9298268197        3.7544530370       -2.5454776333
 H          1.8419595363        2.2189863205       -2.2562862034
 H          3.5166796208        3.4843884209       -0.8473103524
 H          2.6026242214        5.0187921059       -1.1392826112
 H          0.5740352754        4.0228255622       -0.0893046642
 O          1.4709014912       -0.0289975128       -1.3859099945
