  62
        -98.93883666
 C         -1.9099756822        0.5761485444        0.5193031764
 C         -2.9635525678        1.3484605757       -0.0215432771
 C         -4.3236693457        0.8049810253        0.1351173342
 C         -4.4872036029       -0.3664800613        0.7742023872
 C         -5.7723351387       -1.1146269408        0.9983818083
 C         -6.0031322046       -2.1472914119       -0.1179297058
 C         -6.7276262714       -1.6105000151       -1.3517989831
 H         -6.7090866111       -2.3989479314       -2.1077223454
 H         -7.7735635416       -1.4230357709       -1.0999544834
 C         -6.1338293065       -0.3354153323       -1.9561446025
 H         -5.0451858388       -0.4115089686       -1.9769878860
 H         -6.4730690835       -0.2664451000       -2.9915631784
 C         -6.5549283311        0.9392124342       -1.2097065723
 H         -7.3740092971        0.7004979560       -0.5316135975
 H         -6.9475939212        1.6641525176       -1.9257485195
 C         -5.4329654010        1.6464858574       -0.4351597217
 H         -4.9276557722        2.3580251260       -1.0957968977
 H         -5.8754468165        2.2350094543        0.3755179999
 H         -5.0289801661       -2.5499538770       -0.4075198344
 H         -6.5906965464       -2.9742882976        0.2859544422
 H         -5.6605531782       -1.6461751335        1.9457317328
 H         -6.6097552137       -0.4279452459        1.0788445666
 O         -3.4430274516       -1.0801202346        1.2791369224
 C         -2.1354079095       -0.6383059739        1.1662902658
 O         -1.2904102566       -1.3996229613        1.6737350504
 O         -2.7758043669        2.4431041224       -0.6184052628
 C         -0.4863062703        1.0910186800        0.3945913986
 C          0.3475005966        0.0918966432       -0.3673077013
 C         -0.0426223909       -0.2433215057       -1.6626364465
 C          0.6620838041       -1.1779659245       -2.3941942162
 C          1.7788172448       -1.7924700584       -1.8536978285
 C          2.1790252093       -1.4643965248       -0.5647238347
 C          1.4687800646       -0.5207275492        0.1676577926
 H          1.7920754825       -0.3023100657        1.1708515150
 N          3.2947325391       -2.0917056095        0.0118423188
 S          4.4360749333       -1.2131513098        0.8574708048
 O          5.5655486610       -2.1089392413        0.9741746322
 O          3.8844100344       -0.7178071200        2.0918536357
 C          4.8456379957        0.1380178202       -0.2316800253
 C          4.2116079808        1.3543995639       -0.0818792884
 C          4.4923253909        2.3695736892       -0.9830572678
 C          5.3948569245        2.1518883380       -2.0123557096
 C          6.0262268420        0.9244732063       -2.1471105898
 C          5.7474249953       -0.0951963527       -1.2520521999
 H          6.2240126873       -1.0601276991       -1.3139587877
 H          6.7309303983        0.7597489093       -2.9462036714
 H          5.6087631835        2.9448776235       -2.7114789356
 H          4.0037790355        3.3251758675       -0.8779558475
 H          3.5188630826        1.4878547467        0.7322433285
 H          3.7408314743       -2.7755141855       -0.5818307099
 H          2.3270767809       -2.5303471200       -2.4194829594
 H          0.3432770863       -1.4312041425       -3.3940440250
 H         -0.9176611248        0.2347421335       -2.0815086825
 H         -0.5625190800        2.0077351405       -0.2083831234
 C          0.0674546399        1.4507770265        1.7561682097
 C          1.1228945299        2.5068765506        1.8823574916
 C         -0.2740421371        2.7835326204        2.3495068590
 H         -0.4642555741        2.8412128663        3.4107585101
 H         -0.8892116897        3.4464529676        1.7586861787
 H          1.8972816455        2.3744979912        2.6237939524
 H          1.4509815496        2.9922392966        0.9754174306
 H          0.1084467016        0.6043807141        2.4330561355
