  62
        -98.92985093
 C         -2.3671814301       -0.6924833902        0.2392154503
 C         -2.5528396800        0.7120431999        0.2573164698
 C         -3.8246289600        1.2281930597       -0.2775439703
 C         -4.7249260801        0.3561056296       -0.7629201000
 C         -6.0982020101        0.6520223295       -1.2999528300
 C         -7.1548666600        0.5248443799       -0.1893793100
 C         -7.3867884099        1.7945548102        0.6286725396
 H         -7.9022374699        2.5314491801        0.0092761593
 H         -8.0553214899        1.5330848206        1.4521369997
 C         -6.1247792799        2.4398216304        1.2071293493
 H         -5.4692962699        1.6676584405        1.6143644196
 H         -6.4260568398        3.0788418907        2.0394969391
 C         -5.3561164299        3.2878896800        0.1828031290
 H         -5.1682129998        4.2790231301        0.6010212986
 H         -5.9804439199        3.4372596697       -0.6978009810
 C         -3.9927597699        2.7227848698       -0.2410259909
 H         -3.7276111699        3.1273845094       -1.2238413110
 H         -3.2215649999        3.0701491200        0.4541862090
 H         -6.8478213401       -0.2889054598        0.4725949503
 H         -8.1056626101        0.2364926398       -0.6420356698
 H         -6.3022122901       -0.1034450908       -2.0614970498
 H         -6.1287304700        1.6337382393       -1.7628644804
 O         -4.5035455601       -0.9852095204       -0.7765885495
 C         -3.3351311602       -1.5504977703       -0.2854792793
 O         -3.3043677302       -2.7898815803       -0.3823616789
 O         -1.6896760100        1.5081900500        0.7212540895
 C         -1.0642106901       -1.2150707900        0.8151182105
 C          0.0009259599       -1.3452928805       -0.2444989495
 C         -0.2651425002       -1.9483535709       -1.4696223193
 C          0.7307579297       -2.0638616313       -2.4220681893
 C          2.0050362698       -1.5876025413       -2.1713410195
 C          2.2856417799       -0.9932915208       -0.9455699697
 C          1.2810005799       -0.8708948404        0.0047041203
 H          1.5021543499       -0.3836806301        0.9422940701
 N          3.5905301799       -0.5635911908       -0.6553335899
 S          3.8635164600        0.7349873296        0.3854335496
 O          3.5966067700        0.3104246801        1.7363883498
 O          3.1568892700        1.9085055494       -0.0769005108
 C          5.6200830300        0.9359564194        0.1563613695
 C          6.0946397100        1.9567205391       -0.6449694209
 C          7.4624337100        2.0791037689       -0.8347764310
 C          8.3267999800        1.1818228291       -0.2260172707
 C          7.8354477200        0.1631079494        0.5772243797
 C          6.4695882700        0.0363982696        0.7728180398
 H          6.0427140999       -0.7327191002        1.3950320500
 H          8.5108507299       -0.5307572004        1.0511413499
 H          9.3904392700        1.2786486890       -0.3762143408
 H          7.8475697700        2.8721254987       -1.4553473313
 H          5.3851430800        2.6343404090       -1.0922924411
 H          4.1706720199       -0.4960579311       -1.4806144800
 H          2.7798556397       -1.6792137216       -2.9171817395
 H          0.5112385597       -2.5293728916       -3.3711847991
 H         -1.2561157102       -2.3304468409       -1.6629992891
 H         -0.7294337100       -0.4296783798        1.5130358002
 C         -1.2357875201       -2.4947182697        1.6236112509
 C         -0.7220756002       -3.8273087499        1.1774519214
 C         -0.0531432101       -3.1118433895        2.3100387311
 H         -0.1791919301       -3.4920755192        3.3125176213
 H          0.9145077999       -2.6690815196        2.1243779409
 H         -1.3295468903       -4.6928234398        1.3924289217
 H         -0.2062931403       -3.8828931303        0.2320102114
 H         -2.1730473701       -2.5016890795        2.1711150810
