  62
        -98.93289980
 C         -1.6745721907       -0.1978784088        0.3265926000
 C         -2.8319456808       -0.8972770788       -0.0902562799
 C         -4.0377590606       -0.0817759588       -0.3452557504
 C         -3.9873166205        1.2532019012       -0.1900384909
 C         -5.0290298604        2.3273235412       -0.4262279816
 C         -6.5018768804        1.9648184113       -0.5992260116
 C         -7.1734571906        1.4012284419        0.6526085186
 H         -8.1847433406        1.0870685619        0.3852721786
 H         -7.2583775807        2.2021974322        1.3914087882
 C         -6.4502691208        0.2340043421        1.3197508592
 H         -7.0333555710       -0.0633314575        2.1956716592
 H         -5.4746905209        0.5659705422        1.6809009391
 C         -6.2611059208       -1.0038622383        0.4452340197
 H         -7.2259013808       -1.3224800484        0.0459916897
 H         -5.8836436710       -1.8047654881        1.0865897401
 C         -5.2743951307       -0.8451988189       -0.7244920702
 H         -5.7541616905       -0.3932606292       -1.5892264605
 H         -4.9390758507       -1.8436779390       -1.0197711897
 H         -6.6266486104        1.2856447709       -1.4373595813
 H         -7.0203202703        2.8907087812       -0.8631462821
 H         -4.9285450005        3.0269269016        0.4097887382
 H         -4.6983428402        2.8682765208       -1.3199957817
 O         -2.8417380805        1.8859981013        0.2034326089
 C         -1.6808950306        1.1897559213        0.4814632194
 O         -0.7355724006        1.9078214614        0.8672051992
 H          2.1726380093       -0.0771534792        0.1974605405
 C          1.7662665093       -0.5982975095       -0.6548543694
 C          0.4649435993       -1.0763218394       -0.6060134393
 C         -0.0519456506       -1.7275478498       -1.7222256391
 C          0.7235696295       -1.8929925104       -2.8548891090
 C          2.0184262396       -1.4063785305       -2.9021841290
 C          2.5430404295       -0.7496404701       -1.7955153592
 N          3.8605945695       -0.2703912202       -1.8026552892
 S          4.2350874196        1.1936543301       -1.0769371298
 O          3.1527944697        2.1410857201       -1.1983350404
 O          5.4917277797        1.5769728097       -1.6852912098
 C          4.5284838093        0.7700359208        0.6266406604
 C          5.5078516992       -0.1638022692        0.9034973010
 C          5.7504948290       -0.5077363587        2.2234631111
 C          5.0151553789        0.0863736518        3.2383623608
 C          4.0386074090        1.0255621218        2.9439345502
 C          3.7904844992        1.3742860913        1.6251545401
 H          3.0289988993        2.0903209912        1.3539746696
 H          3.4638546190        1.4860529822        3.7317312000
 H          5.2020037387       -0.1834642977        4.2657662809
 H          6.5085950789       -1.2375714486        2.4575342416
 H          6.0593234992       -0.5979133696        0.0863933712
 H          4.3481116996       -0.3865495306       -2.6792976291
 H          2.6192851997       -1.5306322210       -3.7904675889
 H          0.3131771496       -2.4014714807       -3.7144435688
 H         -1.0627842007       -2.1039143797       -1.6891015291
 C         -0.3549814209       -0.8819097988        0.6438627505
 H          0.1870569491       -0.1644710085        1.2805063402
 C         -0.5254129111       -2.1609011684        1.4542841410
 C         -0.2025315711       -3.5268132687        0.9361292416
 C          0.6888405388       -2.8866658983        1.9546352515
 H          0.6857659386       -3.2680309779        2.9643330016
 H          1.6502660589       -2.5262317485        1.6194471914
 H          0.1619717990       -3.6188244291       -0.0743520283
 H         -0.8451359113       -4.3383952685        1.2414978119
 H         -1.3672548112       -2.0947344580        2.1359955209
 O         -2.8818150709       -2.1422705189       -0.2563240493
