  62
        -98.92824290
 C          1.9456241710        0.2747082303        0.9155401196
 C          3.1652027109        1.0074056204        0.9133556686
 C          4.3949675408        0.2903419002        0.5407793687
 C          4.3266702309       -1.0316619599        0.3130231097
 C          5.4272440407       -1.9493498402       -0.1420624201
 C          5.4396749102       -2.0654248613       -1.6759771000
 C          6.2641579498       -0.9999604818       -2.3974729211
 H          7.3251314599       -1.1839534216       -2.2158130413
 H          6.0893148894       -1.1245056426       -3.4686939009
 C          5.9447364399        0.4466979684       -2.0119199820
 H          6.2971395895        1.0934713179       -2.8177137126
 H          4.8634577199        0.5775259984       -1.9413537917
 C          6.6096162103        0.8822964495       -0.6976476426
 H          7.3543339205        0.1401491397       -0.4109144723
 H          7.1508632302        1.8171656994       -0.8577703035
 C          5.6451600008        1.1244448003        0.4718584276
 H          6.1914047511        1.0111053110        1.4143731875
 H          5.2894291207        2.1591027702        0.4435261869
 H          5.8397079501       -3.0440306215       -1.9491872394
 H          4.4039668100       -2.0279452817       -2.0235200196
 H          6.3895599409       -1.6153787899        0.2346309893
 H          5.2062969310       -2.9320246799        0.2799727108
 O          3.1651939710       -1.7222537999        0.4449506106
 C          1.9594803810       -1.1140518398        0.7767246407
 O          1.0357462711       -1.9368776297        0.9222359216
 O          3.2258181610        2.2299945206        1.2146993477
 C          0.7009174811        1.0910081005        1.2582921795
 C         -0.5595636588        0.3340865606        1.5629612605
 C         -1.1970234483        0.5313190715        2.7827671706
 C         -2.3997329182       -0.0908426884        3.0705298316
 C         -2.9930521285       -0.9280498791        2.1447915524
 C         -2.3644570789       -1.1368854200        0.9240577423
 C         -1.1671887791       -0.4993771801        0.6327960014
 H         -0.6796266194       -0.7027115208       -0.3089740286
 N         -2.9650705292       -1.9925049307       -0.0234297668
 S         -4.4763494995       -1.5542883912       -0.5899220366
 O         -5.4407278790       -1.7065068405        0.4698597339
 O         -4.6955800899       -2.3507384521       -1.7758656759
 C         -4.3159285597        0.1680628085       -1.0231623979
 C         -4.5226014094        1.1317883792       -0.0560821685
 C         -4.3153942197        2.4621531189       -0.3836201496
 C         -3.9081155502        2.8049404980       -1.6634415400
 C         -3.7106028105        1.8259630973       -2.6249311494
 C         -3.9092875703        0.4932560075       -2.3020367683
 H         -3.7693194105       -0.2996434230       -3.0195340678
 H         -3.3966895009        2.0950566066       -3.6206266997
 H         -3.7428721403        3.8408371878       -1.9125266409
 H         -4.4691363794        3.2262446495        0.3611258499
 H         -4.8452280390        0.8264147599        0.9255261418
 H         -2.3538708095       -2.2226539612       -0.7932359869
 H         -3.9296742683       -1.4235203190        2.3444569231
 H         -2.8750179478        0.0733529523        4.0256751016
 H         -0.7391645581        1.1786615421        3.5172867400
 H          0.9812440114        1.6518676612        2.1666335790
 C          0.4626164106        2.1774049697        0.2015130788
 C         -0.5330109398        2.1238723388       -0.9140431908
 C         -0.7615206095        3.0416265397        0.2478523086
 H         -0.6488627196        4.1052484396        0.1058526678
 H         -1.5373301192        2.7653067901        0.9461578091
 H         -0.2390933602        2.5533203981       -1.8604463612
 H         -1.1864651998        1.2723826487       -1.0083176399
 H          1.3904626605        2.6908968496       -0.0211088120
